 ****** HSPICE -- O-2018.09-2 linux64 (Oct 18 2018) ******                      
  Copyright (c) 1986 - 2026 by Synopsys, Inc. All Rights Reserved.              
  This software and the associated documentation are proprietary
  to Synopsys, Inc. This software may only be used in accordance
  with the terms and conditions of a written license agreement with
  Synopsys, Inc. All other use, reproduction, or distribution of
  this software is strictly prohibited.
  Input File: Defected-cg-cl.sp                                                 
  Command line options: /home/vlsi/Synopsys/Installed_tools/hspice/O-2018.09-2/hspice/linux64/hspice -i Defected-cg-cl.sp -o Defected-cg-cl.lis
 lic:  
 lic: FLEXlm: SDK_11.6.9.6 
 lic: USER:   vlsi                 HOSTNAME: pc14 
 lic: HOSTID: ecaaa01bdeb1         PID:      29641 
 lic: Using FLEXlm license file: 
 lic: 27020@172.16.61.220 
 lic: Checkout 1 hspice 
 lic: License/Maintenance for hspice will expire on 20-mar-2028/2024.09 
 lic: 1(in_use)/20(total) FLOATING license(s) on SERVER 27020@172.16.61.220 
 lic:   
  **info** (Defected-cg-cl.sp:4) DC voltage reset to initial transient source value in source 0:vin. new dc=0.0000D+00
  **warning** (Defected-cg-cl.sp:8) r2 defined in subckt 0 resistance is negative.it may cause instability problem.
  
             
 Warning:'No DC path nodes' occurs 10 times
 No DC path from the following nodes,connected with gdcpath:
 -----------------------
 |Node      |Subckt    |
 |----------+----------|
 |2         |0         |
 |3         |0         |
 |4         |0         |
 |5         |0         |
 |6         |0         |
 |7         |0         |
 |10        |0         |
 |11        |0         |
 |12        |0         |
 |13        |0         |
 -----------------------
              
      

Element variations(Local):   element              parameter
 *****************************************************************
 ******  option summary
 ******
 runlvl  = 3         bypass  = 2.0000    
 **info** dc convergence successful at Newton-Raphson method 
1****** HSPICE -- O-2018.09-2 linux64 (Oct 18 2018) ******                      
 ******  
 .temp25

 ****** operating point information tnom=  25.000 temp=  25.000 ******
 ****** operating point status is voltage   simulation time is     0.     
    node    =voltage      node    =voltage      node    =voltage

 +0:1       =   0.      0:2       =   0.      0:3       =   0.     
 +0:4       =   0.      0:5       =   0.      0:6       =   0.     
 +0:7       =   0.      0:8       =   0.      0:9       =   0.     
 +0:10      =   0.      0:11      =   0.      0:12      =   0.     
 +0:13      =   0.     

 ******
 .temp25

 ****** transient analysis tnom=  25.000 temp=  25.000 ******
x

 time         voltage    current   
             10         l2         
    0.          0.         0.      
    1.00000p   18.0000m    0.      
    2.00000p   36.0000m    0.      
    3.00000p   54.0000m    0.      
    4.00000p   72.0000m    0.      
    5.00000p   90.0000m    0.      
    6.00000p  108.0000m    0.      
    7.00000p  126.0000m    0.      
    8.00000p  144.0000m    0.      
    9.00000p  162.0000m    0.      
   10.00000p  180.0000m    0.      
   11.00000p  198.0000m    0.      
   12.00000p  216.0000m    0.      
   13.00000p  234.0000m    0.      
   14.00000p  252.0000m    0.      
   15.00000p  270.0000m    0.      
   16.00000p  288.0000m    0.      
   17.00000p  306.0000m    0.      
   18.00000p  324.0000m    0.      
   19.00000p  342.0000m    0.      
   20.00000p  360.0000m    0.      
   21.00000p  378.0000m    0.      
   22.00000p  396.0000m    0.      
   23.00000p  414.0000m    0.      
   24.00000p  432.0000m    0.      
   25.00000p  450.0000m    0.      
   26.00000p  468.0000m    0.      
   27.00000p  486.0000m    0.      
   28.00000p  504.0000m    0.      
   29.00000p  522.0000m    0.      
   30.00000p  540.0000m    0.      
   31.00000p  558.0000m    0.      
   32.00000p  576.0000m    0.      
   33.00000p  594.0000m    0.      
   34.00000p  612.0000m    0.      
   35.00000p  630.0000m    0.      
   36.00000p  648.0000m    0.      
   37.00000p  666.0000m    0.      
   38.00000p  684.0000m    0.      
   39.00000p  702.0000m    0.      
   40.00000p  720.0000m    0.      
   41.00000p  738.0000m    0.      
   42.00000p  756.0000m    0.      
   43.00000p  774.0000m    0.      
   44.00000p  792.0000m    0.      
   45.00000p  810.0000m    0.      
   46.00000p  828.0000m    0.      
   47.00000p  846.0000m    0.      
   48.00000p  864.0000m    0.      
   49.00000p  882.0000m    0.      
   50.00000p  900.0000m    0.      
   51.00000p  918.0000m    0.      
   52.00000p  936.0000m    0.      
   53.00000p  954.0000m    0.      
   54.00000p  972.0000m    0.      
   55.00000p  990.0000m    0.      
   56.00000p    1.0080     0.      
   57.00000p    1.0260     0.      
   58.00000p    1.0440     0.      
   59.00000p    1.0620     0.      
   60.00000p    1.0800     0.      
   61.00000p    1.0980     0.      
   62.00000p    1.1160     0.      
   63.00000p    1.1340     0.      
   64.00000p    1.1520     0.      
   65.00000p    1.1700     0.      
   66.00000p    1.1880     0.      
   67.00000p    1.2060     0.      
   68.00000p    1.2240     0.      
   69.00000p    1.2420     0.      
   70.00000p    1.2600     0.      
   71.00000p    1.2780     0.      
   72.00000p    1.2960     0.      
   73.00000p    1.3140     0.      
   74.00000p    1.3320     0.      
   75.00000p    1.3500     0.      
   76.00000p    1.3680     0.      
   77.00000p    1.3860     0.      
   78.00000p    1.4040     0.      
   79.00000p    1.4220     0.      
   80.00000p    1.4400     0.      
   81.00000p    1.4580     0.      
   82.00000p    1.4760     0.      
   83.00000p    1.4940     0.      
   84.00000p    1.5120     0.      
   85.00000p    1.5300     0.      
   86.00000p    1.5480     0.      
   87.00000p    1.5660     0.      
   88.00000p    1.5840     0.      
   89.00000p    1.6020     0.      
   90.00000p    1.6200     0.      
   91.00000p    1.6380     0.      
   92.00000p    1.6560     0.      
   93.00000p    1.6740     0.      
   94.00000p    1.6920     0.      
   95.00000p    1.7100     0.      
   96.00000p    1.7280     0.      
   97.00000p    1.7460     0.      
   98.00000p    1.7640     0.      
   99.00000p    1.7820     0.      
  100.00000p    1.8000     0.      
  101.00000p    1.8000     0.      
  102.00000p    1.8000     0.      
  103.00000p    1.8000     0.      
  104.00000p    1.8000     0.      
  105.00000p    1.8000     0.      
  106.00000p    1.8000     0.      
  107.00000p    1.8000     0.      
  108.00000p    1.8000     0.      
  109.00000p    1.8000     0.      
  110.00000p    1.8000     0.      
  111.00000p    1.8000     0.      
  112.00000p    1.8000     0.      
  113.00000p    1.8000     0.      
  114.00000p    1.8000     0.      
  115.00000p    1.8000     0.      
  116.00000p    1.8000     0.      
  117.00000p    1.8000     0.      
  118.00000p    1.8000     0.      
  119.00000p    1.8000     0.      
  120.00000p    1.8000     0.      
  121.00000p    1.8000     0.      
  122.00000p    1.8000     0.      
  123.00000p    1.8000     0.      
  124.00000p    1.8000     0.      
  125.00000p    1.8000     0.      
  126.00000p    1.8000     0.      
  127.00000p    1.8000     0.      
  128.00000p    1.8000     0.      
  129.00000p    1.8000     0.      
  130.00000p    1.8000     0.      
  131.00000p    1.8000     0.      
  132.00000p    1.8000     0.      
  133.00000p    1.8000     0.      
  134.00000p    1.8000     0.      
  135.00000p    1.8000     0.      
  136.00000p    1.8000     0.      
  137.00000p    1.8000     0.      
  138.00000p    1.8000     0.      
  139.00000p    1.8000     0.      
  140.00000p    1.8000     0.      
  141.00000p    1.8000     0.      
  142.00000p    1.8000     0.      
  143.00000p    1.8000     0.      
  144.00000p    1.8000     0.      
  145.00000p    1.8000     0.      
  146.00000p    1.8000     0.      
  147.00000p    1.8000     0.      
  148.00000p    1.8000     0.      
  149.00000p    1.8000     0.      
  150.00000p    1.8000     0.      
  151.00000p    1.8000     0.      
  152.00000p    1.8000     0.      
  153.00000p    1.8000     0.      
  154.00000p    1.8000     0.      
  155.00000p    1.8000     0.      
  156.00000p    1.8000     0.      
  157.00000p    1.8000     0.      
  158.00000p    1.8000     0.      
  159.00000p    1.8000     0.      
  160.00000p    1.8000     0.      
  161.00000p    1.8000     0.      
  162.00000p    1.8000     0.      
  163.00000p    1.8000     0.      
  164.00000p    1.8000     0.      
  165.00000p    1.8000     0.      
  166.00000p    1.8000     0.      
  167.00000p    1.8000     0.      
  168.00000p    1.8000     0.      
  169.00000p    1.8000     0.      
  170.00000p    1.8000     0.      
  171.00000p    1.8000     0.      
  172.00000p    1.8000     0.      
  173.00000p    1.8000     0.      
  174.00000p    1.8000     0.      
  175.00000p    1.8000     0.      
  176.00000p    1.8000     0.      
  177.00000p    1.8000     0.      
  178.00000p    1.8000     0.      
  179.00000p    1.8000     0.      
  180.00000p    1.8000     0.      
  181.00000p    1.8000     0.      
  182.00000p    1.8000     0.      
  183.00000p    1.8000     0.      
  184.00000p    1.8000     0.      
  185.00000p    1.8000     0.      
  186.00000p    1.8000     0.      
  187.00000p    1.8000     0.      
  188.00000p    1.8000     0.      
  189.00000p    1.8000     0.      
  190.00000p    1.8000     0.      
  191.00000p    1.8000     0.      
  192.00000p    1.8000     0.      
  193.00000p    1.8000     0.      
  194.00000p    1.8000     0.      
  195.00000p    1.8000     0.      
  196.00000p    1.8000     0.      
  197.00000p    1.8000     0.      
  198.00000p    1.8000     0.      
  199.00000p    1.8000     0.      
  200.00000p    1.8000     0.      
  201.00000p    1.8000     0.      
  202.00000p    1.8000     0.      
  203.00000p    1.8000     0.      
  204.00000p    1.8000     0.      
  205.00000p    1.8000     0.      
  206.00000p    1.8000     0.      
  207.00000p    1.8000     0.      
  208.00000p    1.8000     0.      
  209.00000p    1.8000     0.      
  210.00000p    1.8000     0.      
  211.00000p    1.8000     0.      
  212.00000p    1.8000     0.      
  213.00000p    1.8000     0.      
  214.00000p    1.8000     0.      
  215.00000p    1.8000     0.      
  216.00000p    1.8000     0.      
  217.00000p    1.8000     0.      
  218.00000p    1.8000     0.      
  219.00000p    1.8000     0.      
  220.00000p    1.8000     0.      
  221.00000p    1.8000     0.      
  222.00000p    1.8000     0.      
  223.00000p    1.8000     0.      
  224.00000p    1.8000     0.      
  225.00000p    1.8000     0.      
  226.00000p    1.8000     0.      
  227.00000p    1.8000     0.      
  228.00000p    1.8000     0.      
  229.00000p    1.8000     0.      
  230.00000p    1.8000     0.      
  231.00000p    1.8000     0.      
  232.00000p    1.8000     0.      
  233.00000p    1.8000     0.      
  234.00000p    1.8000     0.      
  235.00000p    1.8000     0.      
  236.00000p    1.8000     0.      
  237.00000p    1.8000     0.      
  238.00000p    1.8000     0.      
  239.00000p    1.8000     0.      
  240.00000p    1.8000     0.      
  241.00000p    1.8000     0.      
  242.00000p    1.8000     0.      
  243.00000p    1.8000     0.      
  244.00000p    1.8000     0.      
  245.00000p    1.8000     0.      
  246.00000p    1.8000     0.      
  247.00000p    1.8000     0.      
  248.00000p    1.8000     0.      
  249.00000p    1.8000     0.      
  250.00000p    1.8000     0.      
  251.00000p    1.8000     0.      
  252.00000p    1.8000     0.      
  253.00000p    1.8000     0.      
  254.00000p    1.8000     0.      
  255.00000p    1.8000     0.      
  256.00000p    1.8000     0.      
  257.00000p    1.8000     0.      
  258.00000p    1.8000     0.      
  259.00000p    1.8000     0.      
  260.00000p    1.8000     0.      
  261.00000p    1.8000     0.      
  262.00000p    1.8000     0.      
  263.00000p    1.8000     0.      
  264.00000p    1.8000     0.      
  265.00000p    1.8000     0.      
  266.00000p    1.8000     0.      
  267.00000p    1.8000     0.      
  268.00000p    1.8000     0.      
  269.00000p    1.8000     0.      
  270.00000p    1.8000     0.      
  271.00000p    1.8000     0.      
  272.00000p    1.8000     0.      
  273.00000p    1.8000     0.      
  274.00000p    1.8000     0.      
  275.00000p    1.8000     0.      
  276.00000p    1.8000     0.      
  277.00000p    1.8000     0.      
  278.00000p    1.8000     0.      
  279.00000p    1.8000     0.      
  280.00000p    1.8000     0.      
  281.00000p    1.8000     0.      
  282.00000p    1.8000     0.      
  283.00000p    1.8000     0.      
  284.00000p    1.8000     0.      
  285.00000p    1.8000     0.      
  286.00000p    1.8000     0.      
  287.00000p    1.8000     0.      
  288.00000p    1.8000     0.      
  289.00000p    1.8000     0.      
  290.00000p    1.8000     0.      
  291.00000p    1.8000     0.      
  292.00000p    1.8000     0.      
  293.00000p    1.8000     0.      
  294.00000p    1.8000     0.      
  295.00000p    1.8000     0.      
  296.00000p    1.8000     0.      
  297.00000p    1.8000     0.      
  298.00000p    1.8000     0.      
  299.00000p    1.8000     0.      
  300.00000p    1.8000     0.      
  301.00000p    1.8000     0.      
  302.00000p    1.8000     0.      
  303.00000p    1.8000     0.      
  304.00000p    1.8000     0.      
  305.00000p    1.8000     0.      
  306.00000p    1.8000     0.      
  307.00000p    1.8000     0.      
  308.00000p    1.8000     0.      
  309.00000p    1.8000     0.      
  310.00000p    1.8000     0.      
  311.00000p    1.8000     0.      
  312.00000p    1.8000     0.      
  313.00000p    1.8000     0.      
  314.00000p    1.8000     0.      
  315.00000p    1.8000     0.      
  316.00000p    1.8000     0.      
  317.00000p    1.8000     0.      
  318.00000p    1.8000     0.      
  319.00000p    1.8000     0.      
  320.00000p    1.8000     0.      
  321.00000p    1.8000     0.      
  322.00000p    1.8000     0.      
  323.00000p    1.8000     0.      
  324.00000p    1.8000     0.      
  325.00000p    1.8000     0.      
  326.00000p    1.8000     0.      
  327.00000p    1.8000     0.      
  328.00000p    1.8000     0.      
  329.00000p    1.8000     0.      
  330.00000p    1.8000     0.      
  331.00000p    1.8000     0.      
  332.00000p    1.8000     0.      
  333.00000p    1.8000     0.      
  334.00000p    1.8000     0.      
  335.00000p    1.8000     0.      
  336.00000p    1.8000     0.      
  337.00000p    1.8000     0.      
  338.00000p    1.8000     0.      
  339.00000p    1.8000     0.      
  340.00000p    1.8000     0.      
  341.00000p    1.8000     0.      
  342.00000p    1.8000     0.      
  343.00000p    1.8000     0.      
  344.00000p    1.8000     0.      
  345.00000p    1.8000     0.      
  346.00000p    1.8000     0.      
  347.00000p    1.8000     0.      
  348.00000p    1.8000     0.      
  349.00000p    1.8000     0.      
  350.00000p    1.8000     0.      
  351.00000p    1.8000     0.      
  352.00000p    1.8000     0.      
  353.00000p    1.8000     0.      
  354.00000p    1.8000     0.      
  355.00000p    1.8000     0.      
  356.00000p    1.8000     0.      
  357.00000p    1.8000     0.      
  358.00000p    1.8000     0.      
  359.00000p    1.8000     0.      
  360.00000p    1.8000     0.      
  361.00000p    1.8000     0.      
  362.00000p    1.8000     0.      
  363.00000p    1.8000     0.      
  364.00000p    1.8000     0.      
  365.00000p    1.8000     0.      
  366.00000p    1.8000     0.      
  367.00000p    1.8000     0.      
  368.00000p    1.8000     0.      
  369.00000p    1.8000     0.      
  370.00000p    1.8000     0.      
  371.00000p    1.8000     0.      
  372.00000p    1.8000     0.      
  373.00000p    1.8000     0.      
  374.00000p    1.8000     0.      
  375.00000p    1.8000     0.      
  376.00000p    1.8000     0.      
  377.00000p    1.8000     0.      
  378.00000p    1.8000     0.      
  379.00000p    1.8000     0.      
  380.00000p    1.8000     0.      
  381.00000p    1.8000     0.      
  382.00000p    1.8000     0.      
  383.00000p    1.8000     0.      
  384.00000p    1.8000     0.      
  385.00000p    1.8000     0.      
  386.00000p    1.8000     0.      
  387.00000p    1.8000     0.      
  388.00000p    1.8000     0.      
  389.00000p    1.8000     0.      
  390.00000p    1.8000     0.      
  391.00000p    1.8000     0.      
  392.00000p    1.8000     0.      
  393.00000p    1.8000     0.      
  394.00000p    1.8000     0.      
  395.00000p    1.8000     0.      
  396.00000p    1.8000     0.      
  397.00000p    1.8000     0.      
  398.00000p    1.8000     0.      
  399.00000p    1.8000     0.      
  400.00000p    1.8000     0.      
  401.00000p    1.8000     0.      
  402.00000p    1.8000     0.      
  403.00000p    1.8000     0.      
  404.00000p    1.8000     0.      
  405.00000p    1.8000     0.      
  406.00000p    1.8000     0.      
  407.00000p    1.8000     0.      
  408.00000p    1.8000     0.      
  409.00000p    1.8000     0.      
  410.00000p    1.8000     0.      
  411.00000p    1.8000     0.      
  412.00000p    1.8000     0.      
  413.00000p    1.8000     0.      
  414.00000p    1.8000     0.      
  415.00000p    1.8000     0.      
  416.00000p    1.8000     0.      
  417.00000p    1.8000     0.      
  418.00000p    1.8000     0.      
  419.00000p    1.8000     0.      
  420.00000p    1.8000     0.      
  421.00000p    1.8000     0.      
  422.00000p    1.8000     0.      
  423.00000p    1.8000     0.      
  424.00000p    1.8000     0.      
  425.00000p    1.8000     0.      
  426.00000p    1.8000     0.      
  427.00000p    1.8000     0.      
  428.00000p    1.8000     0.      
  429.00000p    1.8000     0.      
  430.00000p    1.8000     0.      
  431.00000p    1.8000     0.      
  432.00000p    1.8000     0.      
  433.00000p    1.8000     0.      
  434.00000p    1.8000     0.      
  435.00000p    1.8000     0.      
  436.00000p    1.8000     0.      
  437.00000p    1.8000     0.      
  438.00000p    1.8000     0.      
  439.00000p    1.8000     0.      
  440.00000p    1.8000     0.      
  441.00000p    1.8000     0.      
  442.00000p    1.8000     0.      
  443.00000p    1.8000     0.      
  444.00000p    1.8000     0.      
  445.00000p    1.8000     0.      
  446.00000p    1.8000     0.      
  447.00000p    1.8000     0.      
  448.00000p    1.8000     0.      
  449.00000p    1.8000     0.      
  450.00000p    1.8000     0.      
  451.00000p    1.8000     0.      
  452.00000p    1.8000     0.      
  453.00000p    1.8000     0.      
  454.00000p    1.8000     0.      
  455.00000p    1.8000     0.      
  456.00000p    1.8000     0.      
  457.00000p    1.8000     0.      
  458.00000p    1.8000     0.      
  459.00000p    1.8000     0.      
  460.00000p    1.8000     0.      
  461.00000p    1.8000     0.      
  462.00000p    1.8000     0.      
  463.00000p    1.8000     0.      
  464.00000p    1.8000     0.      
  465.00000p    1.8000     0.      
  466.00000p    1.8000     0.      
  467.00000p    1.8000     0.      
  468.00000p    1.8000     0.      
  469.00000p    1.8000     0.      
  470.00000p    1.8000     0.      
  471.00000p    1.8000     0.      
  472.00000p    1.8000     0.      
  473.00000p    1.8000     0.      
  474.00000p    1.8000     0.      
  475.00000p    1.8000     0.      
  476.00000p    1.8000     0.      
  477.00000p    1.8000     0.      
  478.00000p    1.8000     0.      
  479.00000p    1.8000     0.      
  480.00000p    1.8000     0.      
  481.00000p    1.8000     0.      
  482.00000p    1.8000     0.      
  483.00000p    1.8000     0.      
  484.00000p    1.8000     0.      
  485.00000p    1.8000     0.      
  486.00000p    1.8000     0.      
  487.00000p    1.8000     0.      
  488.00000p    1.8000     0.      
  489.00000p    1.8000     0.      
  490.00000p    1.8000     0.      
  491.00000p    1.8000     0.      
  492.00000p    1.8000     0.      
  493.00000p    1.8000     0.      
  494.00000p    1.8000     0.      
  495.00000p    1.8000     0.      
  496.00000p    1.8000     0.      
  497.00000p    1.8000     0.      
  498.00000p    1.8000     0.      
  499.00000p    1.8000     0.      
  500.00000p    1.8000     0.      
  501.00000p    1.8000     0.      
  502.00000p    1.8000     0.      
  503.00000p    1.8000     0.      
  504.00000p    1.8000     0.      
  505.00000p    1.8000     0.      
  506.00000p    1.8000     0.      
  507.00000p    1.8000     0.      
  508.00000p    1.8000     0.      
  509.00000p    1.8000     0.      
  510.00000p    1.8000     0.      
  511.00000p    1.8000     0.      
  512.00000p    1.8000     0.      
  513.00000p    1.8000     0.      
  514.00000p    1.8000     0.      
  515.00000p    1.8000     0.      
  516.00000p    1.8000     0.      
  517.00000p    1.8000     0.      
  518.00000p    1.8000     0.      
  519.00000p    1.8000     0.      
  520.00000p    1.8000     0.      
  521.00000p    1.8000     0.      
  522.00000p    1.8000     0.      
  523.00000p    1.8000     0.      
  524.00000p    1.8000     0.      
  525.00000p    1.8000     0.      
  526.00000p    1.8000     0.      
  527.00000p    1.8000     0.      
  528.00000p    1.8000     0.      
  529.00000p    1.8000     0.      
  530.00000p    1.8000     0.      
  531.00000p    1.8000     0.      
  532.00000p    1.8000     0.      
  533.00000p    1.8000     0.      
  534.00000p    1.8000     0.      
  535.00000p    1.8000     0.      
  536.00000p    1.8000     0.      
  537.00000p    1.8000     0.      
  538.00000p    1.8000     0.      
  539.00000p    1.8000     0.      
  540.00000p    1.8000     0.      
  541.00000p    1.8000     0.      
  542.00000p    1.8000     0.      
  543.00000p    1.8000     0.      
  544.00000p    1.8000     0.      
  545.00000p    1.8000     0.      
  546.00000p    1.8000     0.      
  547.00000p    1.8000     0.      
  548.00000p    1.8000     0.      
  549.00000p    1.8000     0.      
  550.00000p    1.8000     0.      
  551.00000p    1.8000     0.      
  552.00000p    1.8000     0.      
  553.00000p    1.8000     0.      
  554.00000p    1.8000     0.      
  555.00000p    1.8000     0.      
  556.00000p    1.8000     0.      
  557.00000p    1.8000     0.      
  558.00000p    1.8000     0.      
  559.00000p    1.8000     0.      
  560.00000p    1.8000     0.      
  561.00000p    1.8000     0.      
  562.00000p    1.8000     0.      
  563.00000p    1.8000     0.      
  564.00000p    1.8000     0.      
  565.00000p    1.8000     0.      
  566.00000p    1.8000     0.      
  567.00000p    1.8000     0.      
  568.00000p    1.8000     0.      
  569.00000p    1.8000     0.      
  570.00000p    1.8000     0.      
  571.00000p    1.8000     0.      
  572.00000p    1.8000     0.      
  573.00000p    1.8000     0.      
  574.00000p    1.8000     0.      
  575.00000p    1.8000     0.      
  576.00000p    1.8000     0.      
  577.00000p    1.8000     0.      
  578.00000p    1.8000     0.      
  579.00000p    1.8000     0.      
  580.00000p    1.8000     0.      
  581.00000p    1.8000     0.      
  582.00000p    1.8000     0.      
  583.00000p    1.8000     0.      
  584.00000p    1.8000     0.      
  585.00000p    1.8000     0.      
  586.00000p    1.8000     0.      
  587.00000p    1.8000     0.      
  588.00000p    1.8000     0.      
  589.00000p    1.8000     0.      
  590.00000p    1.8000     0.      
  591.00000p    1.8000     0.      
  592.00000p    1.8000     0.      
  593.00000p    1.8000     0.      
  594.00000p    1.8000     0.      
  595.00000p    1.8000     0.      
  596.00000p    1.8000     0.      
  597.00000p    1.8000     0.      
  598.00000p    1.8000     0.      
  599.00000p    1.8000     0.      
  600.00000p    1.8000     0.      
  601.00000p    1.8000     0.      
  602.00000p    1.8000     0.      
  603.00000p    1.8000     0.      
  604.00000p    1.8000     0.      
  605.00000p    1.8000     0.      
  606.00000p    1.8000     0.      
  607.00000p    1.8000     0.      
  608.00000p    1.8000     0.      
  609.00000p    1.8000     0.      
  610.00000p    1.8000     0.      
  611.00000p    1.8000     0.      
  612.00000p    1.8000     0.      
  613.00000p    1.8000     0.      
  614.00000p    1.8000     0.      
  615.00000p    1.8000     0.      
  616.00000p    1.8000     0.      
  617.00000p    1.8000     0.      
  618.00000p    1.8000     0.      
  619.00000p    1.8000     0.      
  620.00000p    1.8000     0.      
  621.00000p    1.8000     0.      
  622.00000p    1.8000     0.      
  623.00000p    1.8000     0.      
  624.00000p    1.8000     0.      
  625.00000p    1.8000     0.      
  626.00000p    1.8000     0.      
  627.00000p    1.8000     0.      
  628.00000p    1.8000     0.      
  629.00000p    1.8000     0.      
  630.00000p    1.8000     0.      
  631.00000p    1.8000     0.      
  632.00000p    1.8000     0.      
  633.00000p    1.8000     0.      
  634.00000p    1.8000     0.      
  635.00000p    1.8000     0.      
  636.00000p    1.8000     0.      
  637.00000p    1.8000     0.      
  638.00000p    1.8000     0.      
  639.00000p    1.8000     0.      
  640.00000p    1.8000     0.      
  641.00000p    1.8000     0.      
  642.00000p    1.8000     0.      
  643.00000p    1.8000     0.      
  644.00000p    1.8000     0.      
  645.00000p    1.8000     0.      
  646.00000p    1.8000     0.      
  647.00000p    1.8000     0.      
  648.00000p    1.8000     0.      
  649.00000p    1.8000     0.      
  650.00000p    1.8000     0.      
  651.00000p    1.8000     0.      
  652.00000p    1.8000     0.      
  653.00000p    1.8000     0.      
  654.00000p    1.8000     0.      
  655.00000p    1.8000     0.      
  656.00000p    1.8000     0.      
  657.00000p    1.8000     0.      
  658.00000p    1.8000     0.      
  659.00000p    1.8000     0.      
  660.00000p    1.8000     0.      
  661.00000p    1.8000     0.      
  662.00000p    1.8000     0.      
  663.00000p    1.8000     0.      
  664.00000p    1.8000     0.      
  665.00000p    1.8000     0.      
  666.00000p    1.8000     0.      
  667.00000p    1.8000     0.      
  668.00000p    1.8000     0.      
  669.00000p    1.8000     0.      
  670.00000p    1.8000     0.      
  671.00000p    1.8000     0.      
  672.00000p    1.8000     0.      
  673.00000p    1.8000     0.      
  674.00000p    1.8000     0.      
  675.00000p    1.8000     0.      
  676.00000p    1.8000     0.      
  677.00000p    1.8000     0.      
  678.00000p    1.8000     0.      
  679.00000p    1.8000     0.      
  680.00000p    1.8000     0.      
  681.00000p    1.8000     0.      
  682.00000p    1.8000     0.      
  683.00000p    1.8000     0.      
  684.00000p    1.8000     0.      
  685.00000p    1.8000     0.      
  686.00000p    1.8000     0.      
  687.00000p    1.8000     0.      
  688.00000p    1.8000     0.      
  689.00000p    1.8000     0.      
  690.00000p    1.8000     0.      
  691.00000p    1.8000     0.      
  692.00000p    1.8000     0.      
  693.00000p    1.8000     0.      
  694.00000p    1.8000     0.      
  695.00000p    1.8000     0.      
  696.00000p    1.8000     0.      
  697.00000p    1.8000     0.      
  698.00000p    1.8000     0.      
  699.00000p    1.8000     0.      
  700.00000p    1.8000     0.      
  701.00000p    1.8000     0.      
  702.00000p    1.8000     0.      
  703.00000p    1.8000     0.      
  704.00000p    1.8000     0.      
  705.00000p    1.8000     0.      
  706.00000p    1.8000     0.      
  707.00000p    1.8000     0.      
  708.00000p    1.8000     0.      
  709.00000p    1.8000     0.      
  710.00000p    1.8000     0.      
  711.00000p    1.8000     0.      
  712.00000p    1.8000     0.      
  713.00000p    1.8000     0.      
  714.00000p    1.8000     0.      
  715.00000p    1.8000     0.      
  716.00000p    1.8000     0.      
  717.00000p    1.8000     0.      
  718.00000p    1.8000     0.      
  719.00000p    1.8000     0.      
  720.00000p    1.8000     0.      
  721.00000p    1.8000     0.      
  722.00000p    1.8000     0.      
  723.00000p    1.8000     0.      
  724.00000p    1.8000     0.      
  725.00000p    1.8000     0.      
  726.00000p    1.8000     0.      
  727.00000p    1.8000     0.      
  728.00000p    1.8000     0.      
  729.00000p    1.8000     0.      
  730.00000p    1.8000     0.      
  731.00000p    1.8000     0.      
  732.00000p    1.8000     0.      
  733.00000p    1.8000     0.      
  734.00000p    1.8000     0.      
  735.00000p    1.8000     0.      
  736.00000p    1.8000     0.      
  737.00000p    1.8000     0.      
  738.00000p    1.8000     0.      
  739.00000p    1.8000     0.      
  740.00000p    1.8000     0.      
  741.00000p    1.8000     0.      
  742.00000p    1.8000     0.      
  743.00000p    1.8000     0.      
  744.00000p    1.8000     0.      
  745.00000p    1.8000     0.      
  746.00000p    1.8000     0.      
  747.00000p    1.8000     0.      
  748.00000p    1.8000     0.      
  749.00000p    1.8000     0.      
  750.00000p    1.8000     0.      
  751.00000p    1.8000     0.      
  752.00000p    1.8000     0.      
  753.00000p    1.8000     0.      
  754.00000p    1.8000     0.      
  755.00000p    1.8000     0.      
  756.00000p    1.8000     0.      
  757.00000p    1.8000     0.      
  758.00000p    1.8000     0.      
  759.00000p    1.8000     0.      
  760.00000p    1.8000     0.      
  761.00000p    1.8000     0.      
  762.00000p    1.8000     0.      
  763.00000p    1.8000     0.      
  764.00000p    1.8000     0.      
  765.00000p    1.8000     0.      
  766.00000p    1.8000     0.      
  767.00000p    1.8000     0.      
  768.00000p    1.8000     0.      
  769.00000p    1.8000     0.      
  770.00000p    1.8000     0.      
  771.00000p    1.8000     0.      
  772.00000p    1.8000     0.      
  773.00000p    1.8000     0.      
  774.00000p    1.8000     0.      
  775.00000p    1.8000     0.      
  776.00000p    1.8000     0.      
  777.00000p    1.8000     0.      
  778.00000p    1.8000     0.      
  779.00000p    1.8000     0.      
  780.00000p    1.8000     0.      
  781.00000p    1.8000     0.      
  782.00000p    1.8000     0.      
  783.00000p    1.8000     0.      
  784.00000p    1.8000     0.      
  785.00000p    1.8000     0.      
  786.00000p    1.8000     0.      
  787.00000p    1.8000     0.      
  788.00000p    1.8000     0.      
  789.00000p    1.8000     0.      
  790.00000p    1.8000     0.      
  791.00000p    1.8000     0.      
  792.00000p    1.8000     0.      
  793.00000p    1.8000     0.      
  794.00000p    1.8000     0.      
  795.00000p    1.8000     0.      
  796.00000p    1.8000     0.      
  797.00000p    1.8000     0.      
  798.00000p    1.8000     0.      
  799.00000p    1.8000     0.      
  800.00000p    1.8000     0.      
  801.00000p    1.8000     0.      
  802.00000p    1.8000     0.      
  803.00000p    1.8000     0.      
  804.00000p    1.8000     0.      
  805.00000p    1.8000     0.      
  806.00000p    1.8000     0.      
  807.00000p    1.8000     0.      
  808.00000p    1.8000     0.      
  809.00000p    1.8000     0.      
  810.00000p    1.8000     0.      
  811.00000p    1.8000     0.      
  812.00000p    1.8000     0.      
  813.00000p    1.8000     0.      
  814.00000p    1.8000     0.      
  815.00000p    1.8000     0.      
  816.00000p    1.8000     0.      
  817.00000p    1.8000     0.      
  818.00000p    1.8000     0.      
  819.00000p    1.8000     0.      
  820.00000p    1.8000     0.      
  821.00000p    1.8000     0.      
  822.00000p    1.8000     0.      
  823.00000p    1.8000     0.      
  824.00000p    1.8000     0.      
  825.00000p    1.8000     0.      
  826.00000p    1.8000     0.      
  827.00000p    1.8000     0.      
  828.00000p    1.8000     0.      
  829.00000p    1.8000     0.      
  830.00000p    1.8000     0.      
  831.00000p    1.8000     0.      
  832.00000p    1.8000     0.      
  833.00000p    1.8000     0.      
  834.00000p    1.8000     0.      
  835.00000p    1.8000     0.      
  836.00000p    1.8000     0.      
  837.00000p    1.8000     0.      
  838.00000p    1.8000     0.      
  839.00000p    1.8000     0.      
  840.00000p    1.8000     0.      
  841.00000p    1.8000     0.      
  842.00000p    1.8000     0.      
  843.00000p    1.8000     0.      
  844.00000p    1.8000     0.      
  845.00000p    1.8000     0.      
  846.00000p    1.8000     0.      
  847.00000p    1.8000     0.      
  848.00000p    1.8000     0.      
  849.00000p    1.8000     0.      
  850.00000p    1.8000     0.      
  851.00000p    1.8000     0.      
  852.00000p    1.8000     0.      
  853.00000p    1.8000     0.      
  854.00000p    1.8000     0.      
  855.00000p    1.8000     0.      
  856.00000p    1.8000     0.      
  857.00000p    1.8000     0.      
  858.00000p    1.8000     0.      
  859.00000p    1.8000     0.      
  860.00000p    1.8000     0.      
  861.00000p    1.8000     0.      
  862.00000p    1.8000     0.      
  863.00000p    1.8000     0.      
  864.00000p    1.8000     0.      
  865.00000p    1.8000     0.      
  866.00000p    1.8000     0.      
  867.00000p    1.8000     0.      
  868.00000p    1.8000     0.      
  869.00000p    1.8000     0.      
  870.00000p    1.8000     0.      
  871.00000p    1.8000     0.      
  872.00000p    1.8000     0.      
  873.00000p    1.8000     0.      
  874.00000p    1.8000     0.      
  875.00000p    1.8000     0.      
  876.00000p    1.8000     0.      
  877.00000p    1.8000     0.      
  878.00000p    1.8000     0.      
  879.00000p    1.8000     0.      
  880.00000p    1.8000     0.      
  881.00000p    1.8000     0.      
  882.00000p    1.8000     0.      
  883.00000p    1.8000     0.      
  884.00000p    1.8000     0.      
  885.00000p    1.8000     0.      
  886.00000p    1.8000     0.      
  887.00000p    1.8000     0.      
  888.00000p    1.8000     0.      
  889.00000p    1.8000     0.      
  890.00000p    1.8000     0.      
  891.00000p    1.8000     0.      
  892.00000p    1.8000     0.      
  893.00000p    1.8000     0.      
  894.00000p    1.8000     0.      
  895.00000p    1.8000     0.      
  896.00000p    1.8000     0.      
  897.00000p    1.8000     0.      
  898.00000p    1.8000     0.      
  899.00000p    1.8000     0.      
  900.00000p    1.8000     0.      
  901.00000p    1.8000     0.      
  902.00000p    1.8000     0.      
  903.00000p    1.8000     0.      
  904.00000p    1.8000     0.      
  905.00000p    1.8000     0.      
  906.00000p    1.8000     0.      
  907.00000p    1.8000     0.      
  908.00000p    1.8000     0.      
  909.00000p    1.8000     0.      
  910.00000p    1.8000     0.      
  911.00000p    1.8000     0.      
  912.00000p    1.8000     0.      
  913.00000p    1.8000     0.      
  914.00000p    1.8000     0.      
  915.00000p    1.8000     0.      
  916.00000p    1.8000     0.      
  917.00000p    1.8000     0.      
  918.00000p    1.8000     0.      
  919.00000p    1.8000     0.      
  920.00000p    1.8000     0.      
  921.00000p    1.8000     0.      
  922.00000p    1.8000     0.      
  923.00000p    1.8000     0.      
  924.00000p    1.8000     0.      
  925.00000p    1.8000     0.      
  926.00000p    1.8000     0.      
  927.00000p    1.8000     0.      
  928.00000p    1.8000     0.      
  929.00000p    1.8000     0.      
  930.00000p    1.8000     0.      
  931.00000p    1.8000     0.      
  932.00000p    1.8000     0.      
  933.00000p    1.8000     0.      
  934.00000p    1.8000     0.      
  935.00000p    1.8000     0.      
  936.00000p    1.8000     0.      
  937.00000p    1.8000     0.      
  938.00000p    1.8000     0.      
  939.00000p    1.8000     0.      
  940.00000p    1.8000     0.      
  941.00000p    1.8000     0.      
  942.00000p    1.8000     0.      
  943.00000p    1.8000     0.      
  944.00000p    1.8000     0.      
  945.00000p    1.8000     0.      
  946.00000p    1.8000     0.      
  947.00000p    1.8000     0.      
  948.00000p    1.8000     0.      
  949.00000p    1.8000     0.      
  950.00000p    1.8000     0.      
  951.00000p    1.8000     0.      
  952.00000p    1.8000     0.      
  953.00000p    1.8000     0.      
  954.00000p    1.8000     0.      
  955.00000p    1.8000     0.      
  956.00000p    1.8000     0.      
  957.00000p    1.8000     0.      
  958.00000p    1.8000     0.      
  959.00000p    1.8000     0.      
  960.00000p    1.8000     0.      
  961.00000p    1.8000     0.      
  962.00000p    1.8000     0.      
  963.00000p    1.8000     0.      
  964.00000p    1.8000     0.      
  965.00000p    1.8000     0.      
  966.00000p    1.8000     0.      
  967.00000p    1.8000     0.      
  968.00000p    1.8000     0.      
  969.00000p    1.8000     0.      
  970.00000p    1.8000     0.      
  971.00000p    1.8000     0.      
  972.00000p    1.8000     0.      
  973.00000p    1.8000     0.      
  974.00000p    1.8000     0.      
  975.00000p    1.8000     0.      
  976.00000p    1.8000     0.      
  977.00000p    1.8000     0.      
  978.00000p    1.8000     0.      
  979.00000p    1.8000     0.      
  980.00000p    1.8000     0.      
  981.00000p    1.8000     0.      
  982.00000p    1.8000     0.      
  983.00000p    1.8000     0.      
  984.00000p    1.8000     0.      
  985.00000p    1.8000     0.      
  986.00000p    1.8000     0.      
  987.00000p    1.8000     0.      
  988.00000p    1.8000     0.      
  989.00000p    1.8000     0.      
  990.00000p    1.8000     0.      
  991.00000p    1.8000     0.      
  992.00000p    1.8000     0.      
  993.00000p    1.8000     0.      
  994.00000p    1.8000     0.      
  995.00000p    1.8000     0.      
  996.00000p    1.8000     0.      
  997.00000p    1.8000     0.      
  998.00000p    1.8000     0.      
  999.00000p    1.8000     0.      
    1.00000n    1.8000     0.      
    1.00100n    1.8000     0.      
    1.00200n    1.8000     0.      
    1.00300n    1.8000     0.      
    1.00400n    1.8000     0.      
    1.00500n    1.8000     0.      
    1.00600n    1.8000     0.      
    1.00700n    1.8000     0.      
    1.00800n    1.8000     0.      
    1.00900n    1.8000     0.      
    1.01000n    1.8000     0.      
    1.01100n    1.8000     0.      
    1.01200n    1.8000     0.      
    1.01300n    1.8000     0.      
    1.01400n    1.8000     0.      
    1.01500n    1.8000     0.      
    1.01600n    1.8000     0.      
    1.01700n    1.8000     0.      
    1.01800n    1.8000     0.      
    1.01900n    1.8000     0.      
    1.02000n    1.8000     0.      
    1.02100n    1.8000     0.      
    1.02200n    1.8000     0.      
    1.02300n    1.8000     0.      
    1.02400n    1.8000     0.      
    1.02500n    1.8000     0.      
    1.02600n    1.8000     0.      
    1.02700n    1.8000     0.      
    1.02800n    1.8000     0.      
    1.02900n    1.8000     0.      
    1.03000n    1.8000     0.      
    1.03100n    1.8000     0.      
    1.03200n    1.8000     0.      
    1.03300n    1.8000     0.      
    1.03400n    1.8000     0.      
    1.03500n    1.8000     0.      
    1.03600n    1.8000     0.      
    1.03700n    1.8000     0.      
    1.03800n    1.8000     0.      
    1.03900n    1.8000     0.      
    1.04000n    1.8000     0.      
    1.04100n    1.8000     0.      
    1.04200n    1.8000     0.      
    1.04300n    1.8000     0.      
    1.04400n    1.8000     0.      
    1.04500n    1.8000     0.      
    1.04600n    1.8000     0.      
    1.04700n    1.8000     0.      
    1.04800n    1.8000     0.      
    1.04900n    1.8000     0.      
    1.05000n    1.8000     0.      
    1.05100n    1.8000     0.      
    1.05200n    1.8000     0.      
    1.05300n    1.8000     0.      
    1.05400n    1.8000     0.      
    1.05500n    1.8000     0.      
    1.05600n    1.8000     0.      
    1.05700n    1.8000     0.      
    1.05800n    1.8000     0.      
    1.05900n    1.8000     0.      
    1.06000n    1.8000     0.      
    1.06100n    1.8000     0.      
    1.06200n    1.8000     0.      
    1.06300n    1.8000     0.      
    1.06400n    1.8000     0.      
    1.06500n    1.8000     0.      
    1.06600n    1.8000     0.      
    1.06700n    1.8000     0.      
    1.06800n    1.8000     0.      
    1.06900n    1.8000     0.      
    1.07000n    1.8000     0.      
    1.07100n    1.8000     0.      
    1.07200n    1.8000     0.      
    1.07300n    1.8000     0.      
    1.07400n    1.8000     0.      
    1.07500n    1.8000     0.      
    1.07600n    1.8000     0.      
    1.07700n    1.8000     0.      
    1.07800n    1.8000     0.      
    1.07900n    1.8000     0.      
    1.08000n    1.8000     0.      
    1.08100n    1.8000     0.      
    1.08200n    1.8000     0.      
    1.08300n    1.8000     0.      
    1.08400n    1.8000     0.      
    1.08500n    1.8000     0.      
    1.08600n    1.8000     0.      
    1.08700n    1.8000     0.      
    1.08800n    1.8000     0.      
    1.08900n    1.8000     0.      
    1.09000n    1.8000     0.      
    1.09100n    1.8000     0.      
    1.09200n    1.8000     0.      
    1.09300n    1.8000     0.      
    1.09400n    1.8000     0.      
    1.09500n    1.8000     0.      
    1.09600n    1.8000     0.      
    1.09700n    1.8000     0.      
    1.09800n    1.8000     0.      
    1.09900n    1.8000     0.      
    1.10000n    1.8000     0.      
    1.10100n    1.8000     0.      
    1.10200n    1.8000     0.      
    1.10300n    1.8000     0.      
    1.10400n    1.8000     0.      
    1.10500n    1.8000     0.      
    1.10600n    1.8000     0.      
    1.10700n    1.8000     0.      
    1.10800n    1.8000     0.      
    1.10900n    1.8000     0.      
    1.11000n    1.8000     0.      
    1.11100n    1.8000     0.      
    1.11200n    1.8000     0.      
    1.11300n    1.8000     0.      
    1.11400n    1.8000     0.      
    1.11500n    1.8000     0.      
    1.11600n    1.8000     0.      
    1.11700n    1.8000     0.      
    1.11800n    1.8000     0.      
    1.11900n    1.8000     0.      
    1.12000n    1.8000     0.      
    1.12100n    1.8000     0.      
    1.12200n    1.8000     0.      
    1.12300n    1.8000     0.      
    1.12400n    1.8000     0.      
    1.12500n    1.8000     0.      
    1.12600n    1.8000     0.      
    1.12700n    1.8000     0.      
    1.12800n    1.8000     0.      
    1.12900n    1.8000     0.      
    1.13000n    1.8000     0.      
    1.13100n    1.8000     0.      
    1.13200n    1.8000     0.      
    1.13300n    1.8000     0.      
    1.13400n    1.8000     0.      
    1.13500n    1.8000     0.      
    1.13600n    1.8000     0.      
    1.13700n    1.8000     0.      
    1.13800n    1.8000     0.      
    1.13900n    1.8000     0.      
    1.14000n    1.8000     0.      
    1.14100n    1.8000     0.      
    1.14200n    1.8000     0.      
    1.14300n    1.8000     0.      
    1.14400n    1.8000     0.      
    1.14500n    1.8000     0.      
    1.14600n    1.8000     0.      
    1.14700n    1.8000     0.      
    1.14800n    1.8000     0.      
    1.14900n    1.8000     0.      
    1.15000n    1.8000     0.      
    1.15100n    1.8000     0.      
    1.15200n    1.8000     0.      
    1.15300n    1.8000     0.      
    1.15400n    1.8000     0.      
    1.15500n    1.8000     0.      
    1.15600n    1.8000     0.      
    1.15700n    1.8000     0.      
    1.15800n    1.8000     0.      
    1.15900n    1.8000     0.      
    1.16000n    1.8000     0.      
    1.16100n    1.8000     0.      
    1.16200n    1.8000     0.      
    1.16300n    1.8000     0.      
    1.16400n    1.8000     0.      
    1.16500n    1.8000     0.      
    1.16600n    1.8000     0.      
    1.16700n    1.8000     0.      
    1.16800n    1.8000     0.      
    1.16900n    1.8000     0.      
    1.17000n    1.8000     0.      
    1.17100n    1.8000     0.      
    1.17200n    1.8000     0.      
    1.17300n    1.8000     0.      
    1.17400n    1.8000     0.      
    1.17500n    1.8000     0.      
    1.17600n    1.8000     0.      
    1.17700n    1.8000     0.      
    1.17800n    1.8000     0.      
    1.17900n    1.8000     0.      
    1.18000n    1.8000     0.      
    1.18100n    1.8000     0.      
    1.18200n    1.8000     0.      
    1.18300n    1.8000     0.      
    1.18400n    1.8000     0.      
    1.18500n    1.8000     0.      
    1.18600n    1.8000     0.      
    1.18700n    1.8000     0.      
    1.18800n    1.8000     0.      
    1.18900n    1.8000     0.      
    1.19000n    1.8000     0.      
    1.19100n    1.8000     0.      
    1.19200n    1.8000     0.      
    1.19300n    1.8000     0.      
    1.19400n    1.8000     0.      
    1.19500n    1.8000     0.      
    1.19600n    1.8000     0.      
    1.19700n    1.8000     0.      
    1.19800n    1.8000     0.      
    1.19900n    1.8000     0.      
    1.20000n    1.8000     0.      
    1.20100n    1.8000     0.      
    1.20200n    1.8000     0.      
    1.20300n    1.8000     0.      
    1.20400n    1.8000     0.      
    1.20500n    1.8000     0.      
    1.20600n    1.8000     0.      
    1.20700n    1.8000     0.      
    1.20800n    1.8000     0.      
    1.20900n    1.8000     0.      
    1.21000n    1.8000     0.      
    1.21100n    1.8000     0.      
    1.21200n    1.8000     0.      
    1.21300n    1.8000     0.      
    1.21400n    1.8000     0.      
    1.21500n    1.8000     0.      
    1.21600n    1.8000     0.      
    1.21700n    1.8000     0.      
    1.21800n    1.8000     0.      
    1.21900n    1.8000     0.      
    1.22000n    1.8000     0.      
    1.22100n    1.8000     0.      
    1.22200n    1.8000     0.      
    1.22300n    1.8000     0.      
    1.22400n    1.8000     0.      
    1.22500n    1.8000     0.      
    1.22600n    1.8000     0.      
    1.22700n    1.8000     0.      
    1.22800n    1.8000     0.      
    1.22900n    1.8000     0.      
    1.23000n    1.8000     0.      
    1.23100n    1.8000     0.      
    1.23200n    1.8000     0.      
    1.23300n    1.8000     0.      
    1.23400n    1.8000     0.      
    1.23500n    1.8000     0.      
    1.23600n    1.8000     0.      
    1.23700n    1.8000     0.      
    1.23800n    1.8000     0.      
    1.23900n    1.8000     0.      
    1.24000n    1.8000     0.      
    1.24100n    1.8000     0.      
    1.24200n    1.8000     0.      
    1.24300n    1.8000     0.      
    1.24400n    1.8000     0.      
    1.24500n    1.8000     0.      
    1.24600n    1.8000     0.      
    1.24700n    1.8000     0.      
    1.24800n    1.8000     0.      
    1.24900n    1.8000     0.      
    1.25000n    1.8000     0.      
    1.25100n    1.8000     0.      
    1.25200n    1.8000     0.      
    1.25300n    1.8000     0.      
    1.25400n    1.8000     0.      
    1.25500n    1.8000     0.      
    1.25600n    1.8000     0.      
    1.25700n    1.8000     0.      
    1.25800n    1.8000     0.      
    1.25900n    1.8000     0.      
    1.26000n    1.8000     0.      
    1.26100n    1.8000     0.      
    1.26200n    1.8000     0.      
    1.26300n    1.8000     0.      
    1.26400n    1.8000     0.      
    1.26500n    1.8000     0.      
    1.26600n    1.8000     0.      
    1.26700n    1.8000     0.      
    1.26800n    1.8000     0.      
    1.26900n    1.8000     0.      
    1.27000n    1.8000     0.      
    1.27100n    1.8000     0.      
    1.27200n    1.8000     0.      
    1.27300n    1.8000     0.      
    1.27400n    1.8000     0.      
    1.27500n    1.8000     0.      
    1.27600n    1.8000     0.      
    1.27700n    1.8000     0.      
    1.27800n    1.8000     0.      
    1.27900n    1.8000     0.      
    1.28000n    1.8000     0.      
    1.28100n    1.8000     0.      
    1.28200n    1.8000     0.      
    1.28300n    1.8000     0.      
    1.28400n    1.8000     0.      
    1.28500n    1.8000     0.      
    1.28600n    1.8000     0.      
    1.28700n    1.8000     0.      
    1.28800n    1.8000     0.      
    1.28900n    1.8000     0.      
    1.29000n    1.8000     0.      
    1.29100n    1.8000     0.      
    1.29200n    1.8000     0.      
    1.29300n    1.8000     0.      
    1.29400n    1.8000     0.      
    1.29500n    1.8000     0.      
    1.29600n    1.8000     0.      
    1.29700n    1.8000     0.      
    1.29800n    1.8000     0.      
    1.29900n    1.8000     0.      
    1.30000n    1.8000     0.      
    1.30100n    1.8000     0.      
    1.30200n    1.8000     0.      
    1.30300n    1.8000     0.      
    1.30400n    1.8000     0.      
    1.30500n    1.8000     0.      
    1.30600n    1.8000     0.      
    1.30700n    1.8000     0.      
    1.30800n    1.8000     0.      
    1.30900n    1.8000     0.      
    1.31000n    1.8000     0.      
    1.31100n    1.8000     0.      
    1.31200n    1.8000     0.      
    1.31300n    1.8000     0.      
    1.31400n    1.8000     0.      
    1.31500n    1.8000     0.      
    1.31600n    1.8000     0.      
    1.31700n    1.8000     0.      
    1.31800n    1.8000     0.      
    1.31900n    1.8000     0.      
    1.32000n    1.8000     0.      
    1.32100n    1.8000     0.      
    1.32200n    1.8000     0.      
    1.32300n    1.8000     0.      
    1.32400n    1.8000     0.      
    1.32500n    1.8000     0.      
    1.32600n    1.8000     0.      
    1.32700n    1.8000     0.      
    1.32800n    1.8000     0.      
    1.32900n    1.8000     0.      
    1.33000n    1.8000     0.      
    1.33100n    1.8000     0.      
    1.33200n    1.8000     0.      
    1.33300n    1.8000     0.      
    1.33400n    1.8000     0.      
    1.33500n    1.8000     0.      
    1.33600n    1.8000     0.      
    1.33700n    1.8000     0.      
    1.33800n    1.8000     0.      
    1.33900n    1.8000     0.      
    1.34000n    1.8000     0.      
    1.34100n    1.8000     0.      
    1.34200n    1.8000     0.      
    1.34300n    1.8000     0.      
    1.34400n    1.8000     0.      
    1.34500n    1.8000     0.      
    1.34600n    1.8000     0.      
    1.34700n    1.8000     0.      
    1.34800n    1.8000     0.      
    1.34900n    1.8000     0.      
    1.35000n    1.8000     0.      
    1.35100n    1.8000     0.      
    1.35200n    1.8000     0.      
    1.35300n    1.8000     0.      
    1.35400n    1.8000     0.      
    1.35500n    1.8000     0.      
    1.35600n    1.8000     0.      
    1.35700n    1.8000     0.      
    1.35800n    1.8000     0.      
    1.35900n    1.8000     0.      
    1.36000n    1.8000     0.      
    1.36100n    1.8000     0.      
    1.36200n    1.8000     0.      
    1.36300n    1.8000     0.      
    1.36400n    1.8000     0.      
    1.36500n    1.8000     0.      
    1.36600n    1.8000     0.      
    1.36700n    1.8000     0.      
    1.36800n    1.8000     0.      
    1.36900n    1.8000     0.      
    1.37000n    1.8000     0.      
    1.37100n    1.8000     0.      
    1.37200n    1.8000     0.      
    1.37300n    1.8000     0.      
    1.37400n    1.8000     0.      
    1.37500n    1.8000     0.      
    1.37600n    1.8000     0.      
    1.37700n    1.8000     0.      
    1.37800n    1.8000     0.      
    1.37900n    1.8000     0.      
    1.38000n    1.8000     0.      
    1.38100n    1.8000     0.      
    1.38200n    1.8000     0.      
    1.38300n    1.8000     0.      
    1.38400n    1.8000     0.      
    1.38500n    1.8000     0.      
    1.38600n    1.8000     0.      
    1.38700n    1.8000     0.      
    1.38800n    1.8000     0.      
    1.38900n    1.8000     0.      
    1.39000n    1.8000     0.      
    1.39100n    1.8000     0.      
    1.39200n    1.8000     0.      
    1.39300n    1.8000     0.      
    1.39400n    1.8000     0.      
    1.39500n    1.8000     0.      
    1.39600n    1.8000     0.      
    1.39700n    1.8000     0.      
    1.39800n    1.8000     0.      
    1.39900n    1.8000     0.      
    1.40000n    1.8000     0.      
    1.40100n    1.8000     0.      
    1.40200n    1.8000     0.      
    1.40300n    1.8000     0.      
    1.40400n    1.8000     0.      
    1.40500n    1.8000     0.      
    1.40600n    1.8000     0.      
    1.40700n    1.8000     0.      
    1.40800n    1.8000     0.      
    1.40900n    1.8000     0.      
    1.41000n    1.8000     0.      
    1.41100n    1.8000     0.      
    1.41200n    1.8000     0.      
    1.41300n    1.8000     0.      
    1.41400n    1.8000     0.      
    1.41500n    1.8000     0.      
    1.41600n    1.8000     0.      
    1.41700n    1.8000     0.      
    1.41800n    1.8000     0.      
    1.41900n    1.8000     0.      
    1.42000n    1.8000     0.      
    1.42100n    1.8000     0.      
    1.42200n    1.8000     0.      
    1.42300n    1.8000     0.      
    1.42400n    1.8000     0.      
    1.42500n    1.8000     0.      
    1.42600n    1.8000     0.      
    1.42700n    1.8000     0.      
    1.42800n    1.8000     0.      
    1.42900n    1.8000     0.      
    1.43000n    1.8000     0.      
    1.43100n    1.8000     0.      
    1.43200n    1.8000     0.      
    1.43300n    1.8000     0.      
    1.43400n    1.8000     0.      
    1.43500n    1.8000     0.      
    1.43600n    1.8000     0.      
    1.43700n    1.8000     0.      
    1.43800n    1.8000     0.      
    1.43900n    1.8000     0.      
    1.44000n    1.8000     0.      
    1.44100n    1.8000     0.      
    1.44200n    1.8000     0.      
    1.44300n    1.8000     0.      
    1.44400n    1.8000     0.      
    1.44500n    1.8000     0.      
    1.44600n    1.8000     0.      
    1.44700n    1.8000     0.      
    1.44800n    1.8000     0.      
    1.44900n    1.8000     0.      
    1.45000n    1.8000     0.      
    1.45100n    1.8000     0.      
    1.45200n    1.8000     0.      
    1.45300n    1.8000     0.      
    1.45400n    1.8000     0.      
    1.45500n    1.8000     0.      
    1.45600n    1.8000     0.      
    1.45700n    1.8000     0.      
    1.45800n    1.8000     0.      
    1.45900n    1.8000     0.      
    1.46000n    1.8000     0.      
    1.46100n    1.8000     0.      
    1.46200n    1.8000     0.      
    1.46300n    1.8000     0.      
    1.46400n    1.8000     0.      
    1.46500n    1.8000     0.      
    1.46600n    1.8000     0.      
    1.46700n    1.8000     0.      
    1.46800n    1.8000     0.      
    1.46900n    1.8000     0.      
    1.47000n    1.8000     0.      
    1.47100n    1.8000     0.      
    1.47200n    1.8000     0.      
    1.47300n    1.8000     0.      
    1.47400n    1.8000     0.      
    1.47500n    1.8000     0.      
    1.47600n    1.8000     0.      
    1.47700n    1.8000     0.      
    1.47800n    1.8000     0.      
    1.47900n    1.8000     0.      
    1.48000n    1.8000     0.      
    1.48100n    1.8000     0.      
    1.48200n    1.8000     0.      
    1.48300n    1.8000     0.      
    1.48400n    1.8000     0.      
    1.48500n    1.8000     0.      
    1.48600n    1.8000     0.      
    1.48700n    1.8000     0.      
    1.48800n    1.8000     0.      
    1.48900n    1.8000     0.      
    1.49000n    1.8000     0.      
    1.49100n    1.8000     0.      
    1.49200n    1.8000     0.      
    1.49300n    1.8000     0.      
    1.49400n    1.8000     0.      
    1.49500n    1.8000     0.      
    1.49600n    1.8000     0.      
    1.49700n    1.8000     0.      
    1.49800n    1.8000     0.      
    1.49900n    1.8000     0.      
    1.50000n    1.8000     0.      
    1.50100n    1.8000     0.      
    1.50200n    1.8000     0.      
    1.50300n    1.8000     0.      
    1.50400n    1.8000     0.      
    1.50500n    1.8000     0.      
    1.50600n    1.8000     0.      
    1.50700n    1.8000     0.      
    1.50800n    1.8000     0.      
    1.50900n    1.8000     0.      
    1.51000n    1.8000     0.      
    1.51100n    1.8000     0.      
    1.51200n    1.8000     0.      
    1.51300n    1.8000     0.      
    1.51400n    1.8000     0.      
    1.51500n    1.8000     0.      
    1.51600n    1.8000     0.      
    1.51700n    1.8000     0.      
    1.51800n    1.8000     0.      
    1.51900n    1.8000     0.      
    1.52000n    1.8000     0.      
    1.52100n    1.8000     0.      
    1.52200n    1.8000     0.      
    1.52300n    1.8000     0.      
    1.52400n    1.8000     0.      
    1.52500n    1.8000     0.      
    1.52600n    1.8000     0.      
    1.52700n    1.8000     0.      
    1.52800n    1.8000     0.      
    1.52900n    1.8000     0.      
    1.53000n    1.8000     0.      
    1.53100n    1.8000     0.      
    1.53200n    1.8000     0.      
    1.53300n    1.8000     0.      
    1.53400n    1.8000     0.      
    1.53500n    1.8000     0.      
    1.53600n    1.8000     0.      
    1.53700n    1.8000     0.      
    1.53800n    1.8000     0.      
    1.53900n    1.8000     0.      
    1.54000n    1.8000     0.      
    1.54100n    1.8000     0.      
    1.54200n    1.8000     0.      
    1.54300n    1.8000     0.      
    1.54400n    1.8000     0.      
    1.54500n    1.8000     0.      
    1.54600n    1.8000     0.      
    1.54700n    1.8000     0.      
    1.54800n    1.8000     0.      
    1.54900n    1.8000     0.      
    1.55000n    1.8000     0.      
    1.55100n    1.8000     0.      
    1.55200n    1.8000     0.      
    1.55300n    1.8000     0.      
    1.55400n    1.8000     0.      
    1.55500n    1.8000     0.      
    1.55600n    1.8000     0.      
    1.55700n    1.8000     0.      
    1.55800n    1.8000     0.      
    1.55900n    1.8000     0.      
    1.56000n    1.8000     0.      
    1.56100n    1.8000     0.      
    1.56200n    1.8000     0.      
    1.56300n    1.8000     0.      
    1.56400n    1.8000     0.      
    1.56500n    1.8000     0.      
    1.56600n    1.8000     0.      
    1.56700n    1.8000     0.      
    1.56800n    1.8000     0.      
    1.56900n    1.8000     0.      
    1.57000n    1.8000     0.      
    1.57100n    1.8000     0.      
    1.57200n    1.8000     0.      
    1.57300n    1.8000     0.      
    1.57400n    1.8000     0.      
    1.57500n    1.8000     0.      
    1.57600n    1.8000     0.      
    1.57700n    1.8000     0.      
    1.57800n    1.8000     0.      
    1.57900n    1.8000     0.      
    1.58000n    1.8000     0.      
    1.58100n    1.8000     0.      
    1.58200n    1.8000     0.      
    1.58300n    1.8000     0.      
    1.58400n    1.8000     0.      
    1.58500n    1.8000     0.      
    1.58600n    1.8000     0.      
    1.58700n    1.8000     0.      
    1.58800n    1.8000     0.      
    1.58900n    1.8000     0.      
    1.59000n    1.8000     0.      
    1.59100n    1.8000     0.      
    1.59200n    1.8000     0.      
    1.59300n    1.8000     0.      
    1.59400n    1.8000     0.      
    1.59500n    1.8000     0.      
    1.59600n    1.8000     0.      
    1.59700n    1.8000     0.      
    1.59800n    1.8000     0.      
    1.59900n    1.8000     0.      
    1.60000n    1.8000     0.      
    1.60100n    1.8000     0.      
    1.60200n    1.8000     0.      
    1.60300n    1.8000     0.      
    1.60400n    1.8000     0.      
    1.60500n    1.8000     0.      
    1.60600n    1.8000     0.      
    1.60700n    1.8000     0.      
    1.60800n    1.8000     0.      
    1.60900n    1.8000     0.      
    1.61000n    1.8000     0.      
    1.61100n    1.8000     0.      
    1.61200n    1.8000     0.      
    1.61300n    1.8000     0.      
    1.61400n    1.8000     0.      
    1.61500n    1.8000     0.      
    1.61600n    1.8000     0.      
    1.61700n    1.8000     0.      
    1.61800n    1.8000     0.      
    1.61900n    1.8000     0.      
    1.62000n    1.8000     0.      
    1.62100n    1.8000     0.      
    1.62200n    1.8000     0.      
    1.62300n    1.8000     0.      
    1.62400n    1.8000     0.      
    1.62500n    1.8000     0.      
    1.62600n    1.8000     0.      
    1.62700n    1.8000     0.      
    1.62800n    1.8000     0.      
    1.62900n    1.8000     0.      
    1.63000n    1.8000     0.      
    1.63100n    1.8000     0.      
    1.63200n    1.8000     0.      
    1.63300n    1.8000     0.      
    1.63400n    1.8000     0.      
    1.63500n    1.8000     0.      
    1.63600n    1.8000     0.      
    1.63700n    1.8000     0.      
    1.63800n    1.8000     0.      
    1.63900n    1.8000     0.      
    1.64000n    1.8000     0.      
    1.64100n    1.8000     0.      
    1.64200n    1.8000     0.      
    1.64300n    1.8000     0.      
    1.64400n    1.8000     0.      
    1.64500n    1.8000     0.      
    1.64600n    1.8000     0.      
    1.64700n    1.8000     0.      
    1.64800n    1.8000     0.      
    1.64900n    1.8000     0.      
    1.65000n    1.8000     0.      
    1.65100n    1.8000     0.      
    1.65200n    1.8000     0.      
    1.65300n    1.8000     0.      
    1.65400n    1.8000     0.      
    1.65500n    1.8000     0.      
    1.65600n    1.8000     0.      
    1.65700n    1.8000     0.      
    1.65800n    1.8000     0.      
    1.65900n    1.8000     0.      
    1.66000n    1.8000     0.      
    1.66100n    1.8000     0.      
    1.66200n    1.8000     0.      
    1.66300n    1.8000     0.      
    1.66400n    1.8000     0.      
    1.66500n    1.8000     0.      
    1.66600n    1.8000     0.      
    1.66700n    1.8000     0.      
    1.66800n    1.8000     0.      
    1.66900n    1.8000     0.      
    1.67000n    1.8000     0.      
    1.67100n    1.8000     0.      
    1.67200n    1.8000     0.      
    1.67300n    1.8000     0.      
    1.67400n    1.8000     0.      
    1.67500n    1.8000     0.      
    1.67600n    1.8000     0.      
    1.67700n    1.8000     0.      
    1.67800n    1.8000     0.      
    1.67900n    1.8000     0.      
    1.68000n    1.8000     0.      
    1.68100n    1.8000     0.      
    1.68200n    1.8000     0.      
    1.68300n    1.8000     0.      
    1.68400n    1.8000     0.      
    1.68500n    1.8000     0.      
    1.68600n    1.8000     0.      
    1.68700n    1.8000     0.      
    1.68800n    1.8000     0.      
    1.68900n    1.8000     0.      
    1.69000n    1.8000     0.      
    1.69100n    1.8000     0.      
    1.69200n    1.8000     0.      
    1.69300n    1.8000     0.      
    1.69400n    1.8000     0.      
    1.69500n    1.8000     0.      
    1.69600n    1.8000     0.      
    1.69700n    1.8000     0.      
    1.69800n    1.8000     0.      
    1.69900n    1.8000     0.      
    1.70000n    1.8000     0.      
    1.70100n    1.8000     0.      
    1.70200n    1.8000     0.      
    1.70300n    1.8000     0.      
    1.70400n    1.8000     0.      
    1.70500n    1.8000     0.      
    1.70600n    1.8000     0.      
    1.70700n    1.8000     0.      
    1.70800n    1.8000     0.      
    1.70900n    1.8000     0.      
    1.71000n    1.8000     0.      
    1.71100n    1.8000     0.      
    1.71200n    1.8000     0.      
    1.71300n    1.8000     0.      
    1.71400n    1.8000     0.      
    1.71500n    1.8000     0.      
    1.71600n    1.8000     0.      
    1.71700n    1.8000     0.      
    1.71800n    1.8000     0.      
    1.71900n    1.8000     0.      
    1.72000n    1.8000     0.      
    1.72100n    1.8000     0.      
    1.72200n    1.8000     0.      
    1.72300n    1.8000     0.      
    1.72400n    1.8000     0.      
    1.72500n    1.8000     0.      
    1.72600n    1.8000     0.      
    1.72700n    1.8000     0.      
    1.72800n    1.8000     0.      
    1.72900n    1.8000     0.      
    1.73000n    1.8000     0.      
    1.73100n    1.8000     0.      
    1.73200n    1.8000     0.      
    1.73300n    1.8000     0.      
    1.73400n    1.8000     0.      
    1.73500n    1.8000     0.      
    1.73600n    1.8000     0.      
    1.73700n    1.8000     0.      
    1.73800n    1.8000     0.      
    1.73900n    1.8000     0.      
    1.74000n    1.8000     0.      
    1.74100n    1.8000     0.      
    1.74200n    1.8000     0.      
    1.74300n    1.8000     0.      
    1.74400n    1.8000     0.      
    1.74500n    1.8000     0.      
    1.74600n    1.8000     0.      
    1.74700n    1.8000     0.      
    1.74800n    1.8000     0.      
    1.74900n    1.8000     0.      
    1.75000n    1.8000     0.      
    1.75100n    1.8000     0.      
    1.75200n    1.8000     0.      
    1.75300n    1.8000     0.      
    1.75400n    1.8000     0.      
    1.75500n    1.8000     0.      
    1.75600n    1.8000     0.      
    1.75700n    1.8000     0.      
    1.75800n    1.8000     0.      
    1.75900n    1.8000     0.      
    1.76000n    1.8000     0.      
    1.76100n    1.8000     0.      
    1.76200n    1.8000     0.      
    1.76300n    1.8000     0.      
    1.76400n    1.8000     0.      
    1.76500n    1.8000     0.      
    1.76600n    1.8000     0.      
    1.76700n    1.8000     0.      
    1.76800n    1.8000     0.      
    1.76900n    1.8000     0.      
    1.77000n    1.8000     0.      
    1.77100n    1.8000     0.      
    1.77200n    1.8000     0.      
    1.77300n    1.8000     0.      
    1.77400n    1.8000     0.      
    1.77500n    1.8000     0.      
    1.77600n    1.8000     0.      
    1.77700n    1.8000     0.      
    1.77800n    1.8000     0.      
    1.77900n    1.8000     0.      
    1.78000n    1.8000     0.      
    1.78100n    1.8000     0.      
    1.78200n    1.8000     0.      
    1.78300n    1.8000     0.      
    1.78400n    1.8000     0.      
    1.78500n    1.8000     0.      
    1.78600n    1.8000     0.      
    1.78700n    1.8000     0.      
    1.78800n    1.8000     0.      
    1.78900n    1.8000     0.      
    1.79000n    1.8000     0.      
    1.79100n    1.8000     0.      
    1.79200n    1.8000     0.      
    1.79300n    1.8000     0.      
    1.79400n    1.8000     0.      
    1.79500n    1.8000     0.      
    1.79600n    1.8000     0.      
    1.79700n    1.8000     0.      
    1.79800n    1.8000     0.      
    1.79900n    1.8000     0.      
    1.80000n    1.8000     0.      
    1.80100n    1.8000     0.      
    1.80200n    1.8000     0.      
    1.80300n    1.8000     0.      
    1.80400n    1.8000     0.      
    1.80500n    1.8000     0.      
    1.80600n    1.8000     0.      
    1.80700n    1.8000     0.      
    1.80800n    1.8000     0.      
    1.80900n    1.8000     0.      
    1.81000n    1.8000     0.      
    1.81100n    1.8000     0.      
    1.81200n    1.8000     0.      
    1.81300n    1.8000     0.      
    1.81400n    1.8000     0.      
    1.81500n    1.8000     0.      
    1.81600n    1.8000     0.      
    1.81700n    1.8000     0.      
    1.81800n    1.8000     0.      
    1.81900n    1.8000     0.      
    1.82000n    1.8000     0.      
    1.82100n    1.8000     0.      
    1.82200n    1.8000     0.      
    1.82300n    1.8000     0.      
    1.82400n    1.8000     0.      
    1.82500n    1.8000     0.      
    1.82600n    1.8000     0.      
    1.82700n    1.8000     0.      
    1.82800n    1.8000     0.      
    1.82900n    1.8000     0.      
    1.83000n    1.8000     0.      
    1.83100n    1.8000     0.      
    1.83200n    1.8000     0.      
    1.83300n    1.8000     0.      
    1.83400n    1.8000     0.      
    1.83500n    1.8000     0.      
    1.83600n    1.8000     0.      
    1.83700n    1.8000     0.      
    1.83800n    1.8000     0.      
    1.83900n    1.8000     0.      
    1.84000n    1.8000     0.      
    1.84100n    1.8000     0.      
    1.84200n    1.8000     0.      
    1.84300n    1.8000     0.      
    1.84400n    1.8000     0.      
    1.84500n    1.8000     0.      
    1.84600n    1.8000     0.      
    1.84700n    1.8000     0.      
    1.84800n    1.8000     0.      
    1.84900n    1.8000     0.      
    1.85000n    1.8000     0.      
    1.85100n    1.8000     0.      
    1.85200n    1.8000     0.      
    1.85300n    1.8000     0.      
    1.85400n    1.8000     0.      
    1.85500n    1.8000     0.      
    1.85600n    1.8000     0.      
    1.85700n    1.8000     0.      
    1.85800n    1.8000     0.      
    1.85900n    1.8000     0.      
    1.86000n    1.8000     0.      
    1.86100n    1.8000     0.      
    1.86200n    1.8000     0.      
    1.86300n    1.8000     0.      
    1.86400n    1.8000     0.      
    1.86500n    1.8000     0.      
    1.86600n    1.8000     0.      
    1.86700n    1.8000     0.      
    1.86800n    1.8000     0.      
    1.86900n    1.8000     0.      
    1.87000n    1.8000     0.      
    1.87100n    1.8000     0.      
    1.87200n    1.8000     0.      
    1.87300n    1.8000     0.      
    1.87400n    1.8000     0.      
    1.87500n    1.8000     0.      
    1.87600n    1.8000     0.      
    1.87700n    1.8000     0.      
    1.87800n    1.8000     0.      
    1.87900n    1.8000     0.      
    1.88000n    1.8000     0.      
    1.88100n    1.8000     0.      
    1.88200n    1.8000     0.      
    1.88300n    1.8000     0.      
    1.88400n    1.8000     0.      
    1.88500n    1.8000     0.      
    1.88600n    1.8000     0.      
    1.88700n    1.8000     0.      
    1.88800n    1.8000     0.      
    1.88900n    1.8000     0.      
    1.89000n    1.8000     0.      
    1.89100n    1.8000     0.      
    1.89200n    1.8000     0.      
    1.89300n    1.8000     0.      
    1.89400n    1.8000     0.      
    1.89500n    1.8000     0.      
    1.89600n    1.8000     0.      
    1.89700n    1.8000     0.      
    1.89800n    1.8000     0.      
    1.89900n    1.8000     0.      
    1.90000n    1.8000     0.      
    1.90100n    1.8000     0.      
    1.90200n    1.8000     0.      
    1.90300n    1.8000     0.      
    1.90400n    1.8000     0.      
    1.90500n    1.8000     0.      
    1.90600n    1.8000     0.      
    1.90700n    1.8000     0.      
    1.90800n    1.8000     0.      
    1.90900n    1.8000     0.      
    1.91000n    1.8000     0.      
    1.91100n    1.8000     0.      
    1.91200n    1.8000     0.      
    1.91300n    1.8000     0.      
    1.91400n    1.8000     0.      
    1.91500n    1.8000     0.      
    1.91600n    1.8000     0.      
    1.91700n    1.8000     0.      
    1.91800n    1.8000     0.      
    1.91900n    1.8000     0.      
    1.92000n    1.8000     0.      
    1.92100n    1.8000     0.      
    1.92200n    1.8000     0.      
    1.92300n    1.8000     0.      
    1.92400n    1.8000     0.      
    1.92500n    1.8000     0.      
    1.92600n    1.8000     0.      
    1.92700n    1.8000     0.      
    1.92800n    1.8000     0.      
    1.92900n    1.8000     0.      
    1.93000n    1.8000     0.      
    1.93100n    1.8000     0.      
    1.93200n    1.8000     0.      
    1.93300n    1.8000     0.      
    1.93400n    1.8000     0.      
    1.93500n    1.8000     0.      
    1.93600n    1.8000     0.      
    1.93700n    1.8000     0.      
    1.93800n    1.8000     0.      
    1.93900n    1.8000     0.      
    1.94000n    1.8000     0.      
    1.94100n    1.8000     0.      
    1.94200n    1.8000     0.      
    1.94300n    1.8000     0.      
    1.94400n    1.8000     0.      
    1.94500n    1.8000     0.      
    1.94600n    1.8000     0.      
    1.94700n    1.8000     0.      
    1.94800n    1.8000     0.      
    1.94900n    1.8000     0.      
    1.95000n    1.8000     0.      
    1.95100n    1.8000     0.      
    1.95200n    1.8000     0.      
    1.95300n    1.8000     0.      
    1.95400n    1.8000     0.      
    1.95500n    1.8000     0.      
    1.95600n    1.8000     0.      
    1.95700n    1.8000     0.      
    1.95800n    1.8000     0.      
    1.95900n    1.8000     0.      
    1.96000n    1.8000     0.      
    1.96100n    1.8000     0.      
    1.96200n    1.8000     0.      
    1.96300n    1.8000     0.      
    1.96400n    1.8000     0.      
    1.96500n    1.8000     0.      
    1.96600n    1.8000     0.      
    1.96700n    1.8000     0.      
    1.96800n    1.8000     0.      
    1.96900n    1.8000     0.      
    1.97000n    1.8000     0.      
    1.97100n    1.8000     0.      
    1.97200n    1.8000     0.      
    1.97300n    1.8000     0.      
    1.97400n    1.8000     0.      
    1.97500n    1.8000     0.      
    1.97600n    1.8000     0.      
    1.97700n    1.8000     0.      
    1.97800n    1.8000     0.      
    1.97900n    1.8000     0.      
    1.98000n    1.8000     0.      
    1.98100n    1.8000     0.      
    1.98200n    1.8000     0.      
    1.98300n    1.8000     0.      
    1.98400n    1.8000     0.      
    1.98500n    1.8000     0.      
    1.98600n    1.8000     0.      
    1.98700n    1.8000     0.      
    1.98800n    1.8000     0.      
    1.98900n    1.8000     0.      
    1.99000n    1.8000     0.      
    1.99100n    1.8000     0.      
    1.99200n    1.8000     0.      
    1.99300n    1.8000     0.      
    1.99400n    1.8000     0.      
    1.99500n    1.8000     0.      
    1.99600n    1.8000     0.      
    1.99700n    1.8000     0.      
    1.99800n    1.8000     0.      
    1.99900n    1.8000     0.      
    2.00000n    1.8000     0.      
    2.00100n    1.8000     0.      
    2.00200n    1.8000     0.      
    2.00300n    1.8000     0.      
    2.00400n    1.8000     0.      
    2.00500n    1.8000     0.      
    2.00600n    1.8000     0.      
    2.00700n    1.8000     0.      
    2.00800n    1.8000     0.      
    2.00900n    1.8000     0.      
    2.01000n    1.8000     0.      
    2.01100n    1.8000     0.      
    2.01200n    1.8000     0.      
    2.01300n    1.8000     0.      
    2.01400n    1.8000     0.      
    2.01500n    1.8000     0.      
    2.01600n    1.8000     0.      
    2.01700n    1.8000     0.      
    2.01800n    1.8000     0.      
    2.01900n    1.8000     0.      
    2.02000n    1.8000     0.      
    2.02100n    1.8000     0.      
    2.02200n    1.8000     0.      
    2.02300n    1.8000     0.      
    2.02400n    1.8000     0.      
    2.02500n    1.8000     0.      
    2.02600n    1.8000     0.      
    2.02700n    1.8000     0.      
    2.02800n    1.8000     0.      
    2.02900n    1.8000     0.      
    2.03000n    1.8000     0.      
    2.03100n    1.8000     0.      
    2.03200n    1.8000     0.      
    2.03300n    1.8000     0.      
    2.03400n    1.8000     0.      
    2.03500n    1.8000     0.      
    2.03600n    1.8000     0.      
    2.03700n    1.8000     0.      
    2.03800n    1.8000     0.      
    2.03900n    1.8000     0.      
    2.04000n    1.8000     0.      
    2.04100n    1.8000     0.      
    2.04200n    1.8000     0.      
    2.04300n    1.8000     0.      
    2.04400n    1.8000     0.      
    2.04500n    1.8000     0.      
    2.04600n    1.8000     0.      
    2.04700n    1.8000     0.      
    2.04800n    1.8000     0.      
    2.04900n    1.8000     0.      
    2.05000n    1.8000     0.      
    2.05100n    1.8000     0.      
    2.05200n    1.8000     0.      
    2.05300n    1.8000     0.      
    2.05400n    1.8000     0.      
    2.05500n    1.8000     0.      
    2.05600n    1.8000     0.      
    2.05700n    1.8000     0.      
    2.05800n    1.8000     0.      
    2.05900n    1.8000     0.      
    2.06000n    1.8000     0.      
    2.06100n    1.8000     0.      
    2.06200n    1.8000     0.      
    2.06300n    1.8000     0.      
    2.06400n    1.8000     0.      
    2.06500n    1.8000     0.      
    2.06600n    1.8000     0.      
    2.06700n    1.8000     0.      
    2.06800n    1.8000     0.      
    2.06900n    1.8000     0.      
    2.07000n    1.8000     0.      
    2.07100n    1.8000     0.      
    2.07200n    1.8000     0.      
    2.07300n    1.8000     0.      
    2.07400n    1.8000     0.      
    2.07500n    1.8000     0.      
    2.07600n    1.8000     0.      
    2.07700n    1.8000     0.      
    2.07800n    1.8000     0.      
    2.07900n    1.8000     0.      
    2.08000n    1.8000     0.      
    2.08100n    1.8000     0.      
    2.08200n    1.8000     0.      
    2.08300n    1.8000     0.      
    2.08400n    1.8000     0.      
    2.08500n    1.8000     0.      
    2.08600n    1.8000     0.      
    2.08700n    1.8000     0.      
    2.08800n    1.8000     0.      
    2.08900n    1.8000     0.      
    2.09000n    1.8000     0.      
    2.09100n    1.8000     0.      
    2.09200n    1.8000     0.      
    2.09300n    1.8000     0.      
    2.09400n    1.8000     0.      
    2.09500n    1.8000     0.      
    2.09600n    1.8000     0.      
    2.09700n    1.8000     0.      
    2.09800n    1.8000     0.      
    2.09900n    1.8000     0.      
    2.10000n    1.8000     0.      
    2.10100n    1.8000     0.      
    2.10200n    1.8000     0.      
    2.10300n    1.8000     0.      
    2.10400n    1.8000     0.      
    2.10500n    1.8000     0.      
    2.10600n    1.8000     0.      
    2.10700n    1.8000     0.      
    2.10800n    1.8000     0.      
    2.10900n    1.8000     0.      
    2.11000n    1.8000     0.      
    2.11100n    1.8000     0.      
    2.11200n    1.8000     0.      
    2.11300n    1.8000     0.      
    2.11400n    1.8000     0.      
    2.11500n    1.8000     0.      
    2.11600n    1.8000     0.      
    2.11700n    1.8000     0.      
    2.11800n    1.8000     0.      
    2.11900n    1.8000     0.      
    2.12000n    1.8000     0.      
    2.12100n    1.8000     0.      
    2.12200n    1.8000     0.      
    2.12300n    1.8000     0.      
    2.12400n    1.8000     0.      
    2.12500n    1.8000     0.      
    2.12600n    1.8000     0.      
    2.12700n    1.8000     0.      
    2.12800n    1.8000     0.      
    2.12900n    1.8000     0.      
    2.13000n    1.8000     0.      
    2.13100n    1.8000     0.      
    2.13200n    1.8000     0.      
    2.13300n    1.8000     0.      
    2.13400n    1.8000     0.      
    2.13500n    1.8000     0.      
    2.13600n    1.8000     0.      
    2.13700n    1.8000     0.      
    2.13800n    1.8000     0.      
    2.13900n    1.8000     0.      
    2.14000n    1.8000     0.      
    2.14100n    1.8000     0.      
    2.14200n    1.8000     0.      
[...]
   99.50300n -761.5772p    0.      
   99.50400n -761.5772p    0.      
   99.50500n -761.5772p    0.      
   99.50600n -761.5771p    0.      
   99.50700n -761.5771p    0.      
   99.50800n -761.5771p    0.      
   99.50900n -761.5771p    0.      
   99.51000n -761.5771p    0.      
   99.51100n -761.5770p    0.      
   99.51200n -761.5770p    0.      
   99.51300n -761.5770p    0.      
   99.51400n -761.5770p    0.      
   99.51500n -761.5770p    0.      
   99.51600n -761.5770p    0.      
   99.51700n -761.5769p    0.      
   99.51800n -761.5769p    0.      
   99.51900n -761.5769p    0.      
   99.52000n -761.5769p    0.      
   99.52100n -761.5769p    0.      
   99.52200n -761.5768p    0.      
   99.52300n -761.5768p    0.      
   99.52400n -761.5768p    0.      
   99.52500n -761.5768p    0.      
   99.52600n -761.5768p    0.      
   99.52700n -761.5767p    0.      
   99.52800n -761.5767p    0.      
   99.52900n -761.5767p    0.      
   99.53000n -761.5767p    0.      
   99.53100n -761.5767p    0.      
   99.53200n -761.5767p    0.      
   99.53300n -761.5766p    0.      
   99.53400n -761.5766p    0.      
   99.53500n -761.5766p    0.      
   99.53600n -761.5766p    0.      
   99.53700n -761.5766p    0.      
   99.53800n -761.5765p    0.      
   99.53900n -761.5765p    0.      
   99.54000n -761.5765p    0.      
   99.54100n -761.5765p    0.      
   99.54200n -761.5765p    0.      
   99.54300n -761.5764p    0.      
   99.54400n -761.5764p    0.      
   99.54500n -761.5764p    0.      
   99.54600n -761.5764p    0.      
   99.54700n -761.5764p    0.      
   99.54800n -761.5764p    0.      
   99.54900n -761.5763p    0.      
   99.55000n -761.5763p    0.      
   99.55100n -761.5763p    0.      
   99.55200n -761.5763p    0.      
   99.55300n -761.5763p    0.      
   99.55400n -761.5762p    0.      
   99.55500n -761.5762p    0.      
   99.55600n -761.5762p    0.      
   99.55700n -761.5762p    0.      
   99.55800n -761.5762p    0.      
   99.55900n -761.5761p    0.      
   99.56000n -761.5761p    0.      
   99.56100n -761.5761p    0.      
   99.56200n -761.5761p    0.      
   99.56300n -761.5761p    0.      
   99.56400n -761.5761p    0.      
   99.56500n -761.5760p    0.      
   99.56600n -761.5760p    0.      
   99.56700n -761.5760p    0.      
   99.56800n -761.5760p    0.      
   99.56900n -761.5760p    0.      
   99.57000n -761.5759p    0.      
   99.57100n -761.5759p    0.      
   99.57200n -761.5759p    0.      
   99.57300n -761.5759p    0.      
   99.57400n -761.5759p    0.      
   99.57500n -761.5758p    0.      
   99.57600n -761.5758p    0.      
   99.57700n -761.5758p    0.      
   99.57800n -761.5758p    0.      
   99.57900n -761.5758p    0.      
   99.58000n -761.5757p    0.      
   99.58100n -761.5757p    0.      
   99.58200n -761.5757p    0.      
   99.58300n -761.5757p    0.      
   99.58400n -761.5757p    0.      
   99.58500n -761.5757p    0.      
   99.58600n -761.5756p    0.      
   99.58700n -761.5756p    0.      
   99.58800n -761.5756p    0.      
   99.58900n -761.5756p    0.      
   99.59000n -761.5756p    0.      
   99.59100n -761.5755p    0.      
   99.59200n -761.5755p    0.      
   99.59300n -761.5755p    0.      
   99.59400n -761.5755p    0.      
   99.59500n -761.5755p    0.      
   99.59600n -761.5754p    0.      
   99.59700n -761.5754p    0.      
   99.59800n -761.5754p    0.      
   99.59900n -761.5754p    0.      
   99.60000n -761.5754p    0.      
   99.60100n -761.5754p    0.      
   99.60200n -761.5753p    0.      
   99.60300n -761.5753p    0.      
   99.60400n -761.5753p    0.      
   99.60500n -761.5753p    0.      
   99.60600n -761.5753p    0.      
   99.60700n -761.5752p    0.      
   99.60800n -761.5752p    0.      
   99.60900n -761.5752p    0.      
   99.61000n -761.5752p    0.      
   99.61100n -761.5752p    0.      
   99.61200n -761.5751p    0.      
   99.61300n -761.5751p    0.      
   99.61400n -761.5751p    0.      
   99.61500n -761.5751p    0.      
   99.61600n -761.5751p    0.      
   99.61700n -761.5751p    0.      
   99.61800n -761.5750p    0.      
   99.61900n -761.5750p    0.      
   99.62000n -761.5750p    0.      
   99.62100n -761.5750p    0.      
   99.62200n -761.5750p    0.      
   99.62300n -761.5749p    0.      
   99.62400n -761.5749p    0.      
   99.62500n -761.5749p    0.      
   99.62600n -761.5749p    0.      
   99.62700n -761.5749p    0.      
   99.62800n -761.5748p    0.      
   99.62900n -761.5748p    0.      
   99.63000n -761.5748p    0.      
   99.63100n -761.5748p    0.      
   99.63200n -761.5748p    0.      
   99.63300n -761.5748p    0.      
   99.63400n -761.5747p    0.      
   99.63500n -761.5747p    0.      
   99.63600n -761.5747p    0.      
   99.63700n -761.5747p    0.      
   99.63800n -761.5747p    0.      
   99.63900n -761.5746p    0.      
   99.64000n -761.5746p    0.      
   99.64100n -761.5746p    0.      
   99.64200n -761.5746p    0.      
   99.64300n -761.5746p    0.      
   99.64400n -761.5745p    0.      
   99.64500n -761.5745p    0.      
   99.64600n -761.5745p    0.      
   99.64700n -761.5745p    0.      
   99.64800n -761.5745p    0.      
   99.64900n -761.5745p    0.      
   99.65000n -761.5744p    0.      
   99.65100n -761.5744p    0.      
   99.65200n -761.5744p    0.      
   99.65300n -761.5744p    0.      
   99.65400n -761.5744p    0.      
   99.65500n -761.5743p    0.      
   99.65600n -761.5743p    0.      
   99.65700n -761.5743p    0.      
   99.65800n -761.5743p    0.      
   99.65900n -761.5743p    0.      
   99.66000n -761.5742p    0.      
   99.66100n -761.5742p    0.      
   99.66200n -761.5742p    0.      
   99.66300n -761.5742p    0.      
   99.66400n -761.5742p    0.      
   99.66500n -761.5741p    0.      
   99.66600n -761.5741p    0.      
   99.66700n -761.5741p    0.      
   99.66800n -761.5741p    0.      
   99.66900n -761.5741p    0.      
   99.67000n -761.5741p    0.      
   99.67100n -761.5740p    0.      
   99.67200n -761.5740p    0.      
   99.67300n -761.5740p    0.      
   99.67400n -761.5740p    0.      
   99.67500n -761.5740p    0.      
   99.67600n -761.5739p    0.      
   99.67700n -761.5739p    0.      
   99.67800n -761.5739p    0.      
   99.67900n -761.5739p    0.      
   99.68000n -761.5739p    0.      
   99.68100n -761.5738p    0.      
   99.68200n -761.5738p    0.      
   99.68300n -761.5738p    0.      
   99.68400n -761.5738p    0.      
   99.68500n -761.5738p    0.      
   99.68600n -761.5738p    0.      
   99.68700n -761.5737p    0.      
   99.68800n -761.5737p    0.      
   99.68900n -761.5737p    0.      
   99.69000n -761.5737p    0.      
   99.69100n -761.5737p    0.      
   99.69200n -761.5736p    0.      
   99.69300n -761.5736p    0.      
   99.69400n -761.5736p    0.      
   99.69500n -761.5736p    0.      
   99.69600n -761.5736p    0.      
   99.69700n -761.5735p    0.      
   99.69800n -761.5735p    0.      
   99.69900n -761.5735p    0.      
   99.70000n -761.5735p    0.      
   99.70100n -761.5735p    0.      
   99.70200n -761.5735p    0.      
   99.70300n -761.5734p    0.      
   99.70400n -761.5734p    0.      
   99.70500n -761.5734p    0.      
   99.70600n -761.5734p    0.      
   99.70700n -761.5734p    0.      
   99.70800n -761.5733p    0.      
   99.70900n -761.5733p    0.      
   99.71000n -761.5733p    0.      
   99.71100n -761.5733p    0.      
   99.71200n -761.5733p    0.      
   99.71300n -761.5732p    0.      
   99.71400n -761.5732p    0.      
   99.71500n -761.5732p    0.      
   99.71600n -761.5732p    0.      
   99.71700n -761.5732p    0.      
   99.71800n -761.5732p    0.      
   99.71900n -761.5731p    0.      
   99.72000n -761.5731p    0.      
   99.72100n -761.5731p    0.      
   99.72200n -761.5731p    0.      
   99.72300n -761.5731p    0.      
   99.72400n -761.5730p    0.      
   99.72500n -761.5730p    0.      
   99.72600n -761.5730p    0.      
   99.72700n -761.5730p    0.      
   99.72800n -761.5730p    0.      
   99.72900n -761.5729p    0.      
   99.73000n -761.5729p    0.      
   99.73100n -761.5729p    0.      
   99.73200n -761.5729p    0.      
   99.73300n -761.5729p    0.      
   99.73400n -761.5729p    0.      
   99.73500n -761.5728p    0.      
   99.73600n -761.5728p    0.      
   99.73700n -761.5728p    0.      
   99.73800n -761.5728p    0.      
   99.73900n -761.5728p    0.      
   99.74000n -761.5727p    0.      
   99.74100n -761.5727p    0.      
   99.74200n -761.5727p    0.      
   99.74300n -761.5727p    0.      
   99.74400n -761.5727p    0.      
   99.74500n -761.5726p    0.      
   99.74600n -761.5726p    0.      
   99.74700n -761.5726p    0.      
   99.74800n -761.5726p    0.      
   99.74900n -761.5726p    0.      
   99.75000n -761.5725p    0.      
   99.75100n -761.5725p    0.      
   99.75200n -761.5725p    0.      
   99.75300n -761.5725p    0.      
   99.75400n -761.5725p    0.      
   99.75500n -761.5725p    0.      
   99.75600n -761.5724p    0.      
   99.75700n -761.5724p    0.      
   99.75800n -761.5724p    0.      
   99.75900n -761.5724p    0.      
   99.76000n -761.5724p    0.      
   99.76100n -761.5723p    0.      
   99.76200n -761.5723p    0.      
   99.76300n -761.5723p    0.      
   99.76400n -761.5723p    0.      
   99.76500n -761.5723p    0.      
   99.76600n -761.5722p    0.      
   99.76700n -761.5722p    0.      
   99.76800n -761.5722p    0.      
   99.76900n -761.5722p    0.      
   99.77000n -761.5722p    0.      
   99.77100n -761.5722p    0.      
   99.77200n -761.5721p    0.      
   99.77300n -761.5721p    0.      
   99.77400n -761.5721p    0.      
   99.77500n -761.5721p    0.      
   99.77600n -761.5721p    0.      
   99.77700n -761.5720p    0.      
   99.77800n -761.5720p    0.      
   99.77900n -761.5720p    0.      
   99.78000n -761.5720p    0.      
   99.78100n -761.5720p    0.      
   99.78200n -761.5719p    0.      
   99.78300n -761.5719p    0.      
   99.78400n -761.5719p    0.      
   99.78500n -761.5719p    0.      
   99.78600n -761.5719p    0.      
   99.78700n -761.5719p    0.      
   99.78800n -761.5718p    0.      
   99.78900n -761.5718p    0.      
   99.79000n -761.5718p    0.      
   99.79100n -761.5718p    0.      
   99.79200n -761.5718p    0.      
   99.79300n -761.5717p    0.      
   99.79400n -761.5717p    0.      
   99.79500n -761.5717p    0.      
   99.79600n -761.5717p    0.      
   99.79700n -761.5717p    0.      
   99.79800n -761.5716p    0.      
   99.79900n -761.5716p    0.      
   99.80000n -761.5716p    0.      
   99.80100n -761.5716p    0.      
   99.80200n -761.5716p    0.      
   99.80300n -761.5716p    0.      
   99.80400n -761.5715p    0.      
   99.80500n -761.5715p    0.      
   99.80600n -761.5715p    0.      
   99.80700n -761.5715p    0.      
   99.80800n -761.5715p    0.      
   99.80900n -761.5714p    0.      
   99.81000n -761.5714p    0.      
   99.81100n -761.5714p    0.      
   99.81200n -761.5714p    0.      
   99.81300n -761.5714p    0.      
   99.81400n -761.5713p    0.      
   99.81500n -761.5713p    0.      
   99.81600n -761.5713p    0.      
   99.81700n -761.5713p    0.      
   99.81800n -761.5713p    0.      
   99.81900n -761.5712p    0.      
   99.82000n -761.5712p    0.      
   99.82100n -761.5712p    0.      
   99.82200n -761.5712p    0.      
   99.82300n -761.5712p    0.      
   99.82400n -761.5712p    0.      
   99.82500n -761.5711p    0.      
   99.82600n -761.5711p    0.      
   99.82700n -761.5711p    0.      
   99.82800n -761.5711p    0.      
   99.82900n -761.5711p    0.      
   99.83000n -761.5710p    0.      
   99.83100n -761.5710p    0.      
   99.83200n -761.5710p    0.      
   99.83300n -761.5710p    0.      
   99.83400n -761.5710p    0.      
   99.83500n -761.5709p    0.      
   99.83600n -761.5709p    0.      
   99.83700n -761.5709p    0.      
   99.83800n -761.5709p    0.      
   99.83900n -761.5709p    0.      
   99.84000n -761.5709p    0.      
   99.84100n -761.5708p    0.      
   99.84200n -761.5708p    0.      
   99.84300n -761.5708p    0.      
   99.84400n -761.5708p    0.      
   99.84500n -761.5708p    0.      
   99.84600n -761.5707p    0.      
   99.84700n -761.5707p    0.      
   99.84800n -761.5707p    0.      
   99.84900n -761.5707p    0.      
   99.85000n -761.5707p    0.      
   99.85100n -761.5706p    0.      
   99.85200n -761.5706p    0.      
   99.85300n -761.5706p    0.      
   99.85400n -761.5706p    0.      
   99.85500n -761.5706p    0.      
   99.85600n -761.5706p    0.      
   99.85700n -761.5705p    0.      
   99.85800n -761.5705p    0.      
   99.85900n -761.5705p    0.      
   99.86000n -761.5705p    0.      
   99.86100n -761.5705p    0.      
   99.86200n -761.5704p    0.      
   99.86300n -761.5704p    0.      
   99.86400n -761.5704p    0.      
   99.86500n -761.5704p    0.      
   99.86600n -761.5704p    0.      
   99.86700n -761.5703p    0.      
   99.86800n -761.5703p    0.      
   99.86900n -761.5703p    0.      
   99.87000n -761.5703p    0.      
   99.87100n -761.5703p    0.      
   99.87200n -761.5703p    0.      
   99.87300n -761.5702p    0.      
   99.87400n -761.5702p    0.      
   99.87500n -761.5702p    0.      
   99.87600n -761.5702p    0.      
   99.87700n -761.5702p    0.      
   99.87800n -761.5701p    0.      
   99.87900n -761.5701p    0.      
   99.88000n -761.5701p    0.      
   99.88100n -761.5701p    0.      
   99.88200n -761.5701p    0.      
   99.88300n -761.5700p    0.      
   99.88400n -761.5700p    0.      
   99.88500n -761.5700p    0.      
   99.88600n -761.5700p    0.      
   99.88700n -761.5700p    0.      
   99.88800n -761.5700p    0.      
   99.88900n -761.5699p    0.      
   99.89000n -761.5699p    0.      
   99.89100n -761.5699p    0.      
   99.89200n -761.5699p    0.      
   99.89300n -761.5699p    0.      
   99.89400n -761.5698p    0.      
   99.89500n -761.5698p    0.      
   99.89600n -761.5698p    0.      
   99.89700n -761.5698p    0.      
   99.89800n -761.5698p    0.      
   99.89900n -761.5697p    0.      
   99.90000n -761.5697p    0.      
   99.90100n -761.5697p    0.      
   99.90200n -761.5697p    0.      
   99.90300n -761.5697p    0.      
   99.90400n -761.5696p    0.      
   99.90500n -761.5696p    0.      
   99.90600n -761.5696p    0.      
   99.90700n -761.5696p    0.      
   99.90800n -761.5696p    0.      
   99.90900n -761.5696p    0.      
   99.91000n -761.5695p    0.      
   99.91100n -761.5695p    0.      
   99.91200n -761.5695p    0.      
   99.91300n -761.5695p    0.      
   99.91400n -761.5695p    0.      
   99.91500n -761.5694p    0.      
   99.91600n -761.5694p    0.      
   99.91700n -761.5694p    0.      
   99.91800n -761.5694p    0.      
   99.91900n -761.5694p    0.      
   99.92000n -761.5693p    0.      
   99.92100n -761.5693p    0.      
   99.92200n -761.5693p    0.      
   99.92300n -761.5693p    0.      
   99.92400n -761.5693p    0.      
   99.92500n -761.5693p    0.      
   99.92600n -761.5692p    0.      
   99.92700n -761.5692p    0.      
   99.92800n -761.5692p    0.      
   99.92900n -761.5692p    0.      
   99.93000n -761.5692p    0.      
   99.93100n -761.5691p    0.      
   99.93200n -761.5691p    0.      
   99.93300n -761.5691p    0.      
   99.93400n -761.5691p    0.      
   99.93500n -761.5691p    0.      
   99.93600n -761.5690p    0.      
   99.93700n -761.5690p    0.      
   99.93800n -761.5690p    0.      
   99.93900n -761.5690p    0.      
   99.94000n -761.5690p    0.      
   99.94100n -761.5690p    0.      
   99.94200n -761.5689p    0.      
   99.94300n -761.5689p    0.      
   99.94400n -761.5689p    0.      
   99.94500n -761.5689p    0.      
   99.94600n -761.5689p    0.      
   99.94700n -761.5688p    0.      
   99.94800n -761.5688p    0.      
   99.94900n -761.5688p    0.      
   99.95000n -761.5688p    0.      
   99.95100n -761.5688p    0.      
   99.95200n -761.5687p    0.      
   99.95300n -761.5687p    0.      
   99.95400n -761.5687p    0.      
   99.95500n -761.5687p    0.      
   99.95600n -761.5687p    0.      
   99.95700n -761.5687p    0.      
   99.95800n -761.5686p    0.      
   99.95900n -761.5686p    0.      
   99.96000n -761.5686p    0.      
   99.96100n -761.5686p    0.      
   99.96200n -761.5686p    0.      
   99.96300n -761.5685p    0.      
   99.96400n -761.5685p    0.      
   99.96500n -761.5685p    0.      
   99.96600n -761.5685p    0.      
   99.96700n -761.5685p    0.      
   99.96800n -761.5684p    0.      
   99.96900n -761.5684p    0.      
   99.97000n -761.5684p    0.      
   99.97100n -761.5684p    0.      
   99.97200n -761.5684p    0.      
   99.97300n -761.5684p    0.      
   99.97400n -761.5683p    0.      
   99.97500n -761.5683p    0.      
   99.97600n -761.5683p    0.      
   99.97700n -761.5683p    0.      
   99.97800n -761.5683p    0.      
   99.97900n -761.5682p    0.      
   99.98000n -761.5682p    0.      
   99.98100n -761.5682p    0.      
   99.98200n -761.5682p    0.      
   99.98300n -761.5682p    0.      
   99.98400n -761.5681p    0.      
   99.98500n -761.5681p    0.      
   99.98600n -761.5681p    0.      
   99.98700n -761.5681p    0.      
   99.98800n -761.5681p    0.      
   99.98900n -761.5680p    0.      
   99.99000n -761.5680p    0.      
   99.99100n -761.5680p    0.      
   99.99200n -761.5680p    0.      
   99.99300n -761.5680p    0.      
   99.99400n -761.5680p    0.      
   99.99500n -761.5679p    0.      
   99.99600n -761.5679p    0.      
   99.99700n -761.5679p    0.      
   99.99800n -761.5679p    0.      
   99.99900n -761.5679p    0.      
  100.00000n -761.5678p    0.      
y
 tr= 3.9815e-23  targ=  50.0000p   trig=  50.0000p
 tf=-3.0854e-22  targ=   5.1500n   trig=   5.1500n
 pavg= 1.9313e-25  from=   0.             to= 100.0000n

          ***** job concluded
 ******  
 .temp25

 ****** job statistics summary tnom=  25.000 temp=  25.000 ******
  
 ******  Machine Information  ******
 CPU:
 model name	: Intel(R) Core(TM) i5-4590 CPU @ 3.30GHz
 cpu MHz	: 3696.185
  
 OS:
 Linux version 3.10.0-862.el7.x86_64 (mockbuild@x86-034.build.eng.bos.redhat.com) (gcc version 4.8.5 20150623 (Red Hat 4.8.5-28) (GCC) ) #1 SMP Wed Mar 21 18:14:51 EDT 2018


  ******  HSPICE Threads Information  ******

  Command Line Threads Count :     1
  Available CPU Count        :     4
  Actual Threads Count       :     1


  ******  Circuit Statistics  ******
  # nodes       =      14 # elements   =      17
  # resistors   =       4 # capacitors =      10 # inductors   =       2
  # mutual_inds =       0 # vccs       =       0 # vcvs        =       0
  # cccs        =       0 # ccvs       =       0 # volt_srcs   =       1
  # curr_srcs   =       0 # diodes     =       0 # bjts        =       0
  # jfets       =       0 # mosfets    =       0 # U elements  =       0
  # T elements  =       0 # W elements =       0 # B elements  =       0
  # S elements  =       0 # P elements =       0 # va device   =       0
  # vector_srcs =       0 # N elements =       0


  ******  Runtime Statistics (seconds)  ******

  analysis           time    # points   tot. iter  conv.iter
  op point           0.00           1           1
  transient          0.01      100001         524         262 rev=        39
  readin             0.01
  errchk             0.01
  setup              0.00
  output             0.00


           peak memory used        277.92 megabytes
           total cpu time            0.64 seconds
           total elapsed time        0.37 seconds
           job started at     08:51:54 06/12/2026
           job ended   at     08:51:54 06/12/2026


 lic: Release hspice token(s) 
 lic: total license checkout elapse time:        0.03(s)
