$DATA1 SOURCE='HSPICE' VERSION='O-2018.09-2 linux64' PARAM_COUNT=0
.TITLE '.temp25'
 tr               tf               pavg             temper          
 alter#          
  3.127e-23        1.422e-20       -5.465e-24         25.0000       
1               
