$DATA1 SOURCE='HSPICE' VERSION='O-2018.09-2 linux64' PARAM_COUNT=0
.TITLE '.temp25'
 tr               tf               temper           alter#          
 -1.939e-26       -9.926e-24         25.0000        1               
